                                  SEAWAT Version 4
      U.S. GEOLOGICAL SURVEY MODULAR FINITE-DIFFERENCE GROUND-WATER FLOW MODEL
                           VERSION 4.00.03 09/21/2009


 This model run produced both GLOBAL and LIST files.  This is the LIST file.

  ----- 
 | M T | Conversion from Groundwater Vistas                                              
 | 3 D | MT3D Model                                                                      
  ----- 
 THE TRANSPORT MODEL CONSISTS OF    23 LAYER(S)  100 ROW(S)  100 COLUMN(S)
 NUMBER OF STRESS PERIOD(S) FOR TRANSPORT SIMULATION =    1
 NUMBER OF ALL COMPONENTS INCLUDED IN SIMULATION =    1
 NUMBER OF MOBILE COMPONENTS INCLUDED IN SIMULATION =    1
 UNIT FOR TIME IS D   ;  UNIT FOR LENGTH IS M   ;  UNIT FOR MASS IS KG  
 OPTIONAL PACKAGES INCLUDED IN CURRENT SIMULATION:
  o ADV   ON UNIT 82
  o DSP   ON UNIT 83
  o SSM   ON UNIT 84
  o GCG   ON UNIT 86

 BTN5 -- BASIC TRANSPORT PACKAGE, VERSION 5, OCTOBER 2006, INPUT READ FROM UNIT 81
    3460400 ELEMENTS OF THE  X ARRAY USED BY THE BTN PACKAGE
     230023 ELEMENTS OF THE IX ARRAY USED BY THE BTN PACKAGE

 FLOW MODEL IS TRANSIENT

 ADV5 -- ADVECTION PACKAGE, VERSION 5, FEBRUARY 2005, INPUT READ FROM UNIT 82
 ADVECTION IS SOLVED WITH THE UPSTREAM FINITE DIFFERENCE SCHEME
 COURANT NUMBER ALLOWED IN SOLVING THE ADVECTION TERM = 0.500    
          0 ELEMENTS OF THE  X ARRAY USED BY THE ADV PACKAGE
          0 ELEMENTS OF THE IX ARRAY USED BY THE ADV PACKAGE

 DSP5 -- DISPERSION PACKAGE, VERSION 5, OCTOBER 2006, INPUT READ FROM UNIT 83
    2530046 ELEMENTS OF THE  X ARRAY USED BY THE DSP PACKAGE
          0 ELEMENTS OF THE IX ARRAY USED BY THE DSP PACKAGE

 SSM5 -- SINK & SOURCE MIXING PACKAGE, VERSION 5, OCTOBER 2006, INPUT READ FROM UNIT 84
 HEADER LINE OF THE SSM PACKAGE INPUT FILE:
  T F T F F F                                                                                                                                                                                            
 MAJOR STRESS COMPONENTS PRESENT IN THE FLOW MODEL:
  o WELL
  o RECHARGE
 MAXIMUM NUMBER OF POINT SINKS/SOURCES =    3001
      59013 ELEMENTS OF THE  X ARRAY USED BY THE SSM PACKAGE
      10000 ELEMENTS OF THE IX ARRAY BY THE SSM PACKAGE

 GCG5 -- GENERALIZED CONJUGATE GRADIENT SOLVER PACKAGE, VERSION 5, FEBRUARY 2005 INPUT READ FROM UNIT 86
 MAXIMUM OF    1 OUTER ITERATIONS
        AND   50 INNER ITERATIONS ALLOWED FOR CLOSURE
 THE PRECONDITIONING TYPE SELECTED IS MODIFIED INCOMPLETE CHOLESKY (MIC).
 DISPERSION CROSS TERMS LUMPED INTO RIGHT-HAND-SIDE
    5060050 ELEMENTS OF THE  X ARRAY USED BY THE GCG PACKAGE
        150 ELEMENTS OF THE IX ARRAY USED BY THE GCG PACKAGE

 
 # MODFLOW2000 Basic Package                                                     
 #MODFLOW Data Set Created by Groundwater Vistas                                 
 #
   23 LAYERS       100 ROWS       100 COLUMNS
    1 STRESS PERIOD(S) IN SIMULATION

 BAS6 -- BASIC PACKAGE, VERSION 6, 1/11/2000 INPUT READ FROM UNIT    1
        115 ELEMENTS IN IR ARRAY ARE USED BY BAS

 WEL6 -- WELL PACKAGE, VERSION 6, 1/11/2000 INPUT READ FROM UNIT   12
 # MODFLOW2000 Well Package
     0 Named Parameters         0 List entries
 MAXIMUM OF      1 ACTIVE WELLS AT ONE TIME
 CELL-BY-CELL FLOWS WILL BE SAVED ON UNIT   54
          4 ELEMENTS IN RX ARRAY ARE USED BY WEL

 RCH6 -- RECHARGE PACKAGE, VERSION 6, 1/11/2000 INPUT READ FROM UNIT   18
 # MODFLOW2000 Recharge Package
 No named parameters
 OPTION 3 -- RECHARGE TO HIGHEST ACTIVE NODE IN EACH VERTICAL COLUMN
 CELL-BY-CELL FLOWS WILL BE SAVED ON UNIT   51
      10000 ELEMENTS IN RX ARRAY ARE USED BY RCH
      10000 ELEMENTS IN IR ARRAY ARE USED BY RCH

      10004  ELEMENTS OF RX ARRAY USED OUT OF      10004
          0  ELEMENTS OF RZ ARRAY USED OUT OF          1
      10115  ELEMENTS OF IR ARRAY USED OUT OF      10115
1
 # MODFLOW2000 Basic Package                                                     
 #MODFLOW Data Set Created by Groundwater Vistas                                 



                     BOUNDARY ARRAY FOR LAYER   1
 READING ON UNIT    1 WITH FORMAT: (25I3)              



                     BOUNDARY ARRAY FOR LAYER   2
 READING ON UNIT    1 WITH FORMAT: (25I3)              



                     BOUNDARY ARRAY FOR LAYER   3
 READING ON UNIT    1 WITH FORMAT: (25I3)              



                     BOUNDARY ARRAY FOR LAYER   4
 READING ON UNIT    1 WITH FORMAT: (25I3)              



                     BOUNDARY ARRAY FOR LAYER   5
 READING ON UNIT    1 WITH FORMAT: (25I3)              



                     BOUNDARY ARRAY FOR LAYER   6
 READING ON UNIT    1 WITH FORMAT: (25I3)              



                     BOUNDARY ARRAY FOR LAYER   7
 READING ON UNIT    1 WITH FORMAT: (25I3)              



                     BOUNDARY ARRAY FOR LAYER   8
 READING ON UNIT    1 WITH FORMAT: (25I3)              



                     BOUNDARY ARRAY FOR LAYER   9
 READING ON UNIT    1 WITH FORMAT: (25I3)              



                     BOUNDARY ARRAY FOR LAYER  10
 READING ON UNIT    1 WITH FORMAT: (25I3)              



                     BOUNDARY ARRAY FOR LAYER  11
 READING ON UNIT    1 WITH FORMAT: (25I3)              



                     BOUNDARY ARRAY FOR LAYER  12
 READING ON UNIT    1 WITH FORMAT: (25I3)              



                     BOUNDARY ARRAY FOR LAYER  13
 READING ON UNIT    1 WITH FORMAT: (25I3)              



                     BOUNDARY ARRAY FOR LAYER  14
 READING ON UNIT    1 WITH FORMAT: (25I3)              



                     BOUNDARY ARRAY FOR LAYER  15
 READING ON UNIT    1 WITH FORMAT: (25I3)              



                     BOUNDARY ARRAY FOR LAYER  16
 READING ON UNIT    1 WITH FORMAT: (25I3)              



                     BOUNDARY ARRAY FOR LAYER  17
 READING ON UNIT    1 WITH FORMAT: (25I3)              



                     BOUNDARY ARRAY FOR LAYER  18
 READING ON UNIT    1 WITH FORMAT: (25I3)              



                     BOUNDARY ARRAY FOR LAYER  19
 READING ON UNIT    1 WITH FORMAT: (25I3)              



                     BOUNDARY ARRAY FOR LAYER  20
 READING ON UNIT    1 WITH FORMAT: (25I3)              



                     BOUNDARY ARRAY FOR LAYER  21
 READING ON UNIT    1 WITH FORMAT: (25I3)              



                     BOUNDARY ARRAY FOR LAYER  22
 READING ON UNIT    1 WITH FORMAT: (25I3)              



                     BOUNDARY ARRAY FOR LAYER  23
 READING ON UNIT    1 WITH FORMAT: (25I3)              

 AQUIFER HEAD WILL BE SET TO  999.00     AT ALL NO-FLOW NODES (IBOUND=0).

             INITIAL HEAD =   0.00000     FOR LAYER   1

             INITIAL HEAD =   0.00000     FOR LAYER   2

             INITIAL HEAD =   0.00000     FOR LAYER   3

             INITIAL HEAD =   0.00000     FOR LAYER   4

             INITIAL HEAD =   0.00000     FOR LAYER   5

             INITIAL HEAD =   0.00000     FOR LAYER   6

             INITIAL HEAD =   0.00000     FOR LAYER   7

             INITIAL HEAD =   0.00000     FOR LAYER   8

             INITIAL HEAD =   0.00000     FOR LAYER   9

             INITIAL HEAD =   0.00000     FOR LAYER  10

             INITIAL HEAD =   0.00000     FOR LAYER  11

             INITIAL HEAD =   0.00000     FOR LAYER  12

             INITIAL HEAD =   0.00000     FOR LAYER  13

             INITIAL HEAD =   0.00000     FOR LAYER  14

             INITIAL HEAD =   0.00000     FOR LAYER  15

             INITIAL HEAD =   0.00000     FOR LAYER  16

             INITIAL HEAD =   0.00000     FOR LAYER  17

             INITIAL HEAD =   0.00000     FOR LAYER  18

             INITIAL HEAD =   0.00000     FOR LAYER  19

             INITIAL HEAD =   0.00000     FOR LAYER  20

             INITIAL HEAD =   0.00000     FOR LAYER  21

             INITIAL HEAD =   0.00000     FOR LAYER  22

             INITIAL HEAD =   0.00000     FOR LAYER  23

 OUTPUT CONTROL IS SPECIFIED EVERY TIME STEP
 HEAD PRINT FORMAT CODE IS   0    DRAWDOWN PRINT FORMAT CODE IS   0
 HEADS WILL BE SAVED ON UNIT   30    DRAWDOWNS WILL BE SAVED ON UNIT    0
 LAYER NUMBER  AQUIFER TYPE
 ------------  ------------
       1            0
       2            0
       3            0
       4            0
       5            0
       6            0
       7            0
       8            0
       9            0
      10            0
      11            0
      12            0
      13            0
      14            0
      15            0
      16            0
      17            0
      18            0
      19            0
      20            0
      21            0
      22            0
      23            0
                                       WIDTH ALONG ROWS (DELR)  =   100.0000    
                                       WIDTH ALONG COLS (DELC)  =   100.0000    
                                       TOP ELEV. OF 1ST LAYER   =   2.500000    
                                       CELL THICKNESS (DZ)      =   5.000000     FOR LAYER  1
                                       CELL THICKNESS (DZ)      =   5.000000     FOR LAYER  2
                                       CELL THICKNESS (DZ)      =   5.000000     FOR LAYER  3
                                       CELL THICKNESS (DZ)      =   5.000000     FOR LAYER  4
                                       CELL THICKNESS (DZ)      =   5.000000     FOR LAYER  5
                                       CELL THICKNESS (DZ)      =   5.000000     FOR LAYER  6
                                       CELL THICKNESS (DZ)      =   5.000000     FOR LAYER  7
                                       CELL THICKNESS (DZ)      =   5.000000     FOR LAYER  8
                                       CELL THICKNESS (DZ)      =   5.000000     FOR LAYER  9
                                       CELL THICKNESS (DZ)      =   5.000000     FOR LAYER 10
                                       CELL THICKNESS (DZ)      =   5.000000     FOR LAYER 11
                                       CELL THICKNESS (DZ)      =   5.000000     FOR LAYER 12
                                       CELL THICKNESS (DZ)      =   5.000000     FOR LAYER 13
                                       CELL THICKNESS (DZ)      =   5.000000     FOR LAYER 14
                                       CELL THICKNESS (DZ)      =   5.000000     FOR LAYER 15
                                       CELL THICKNESS (DZ)      =   5.000000     FOR LAYER 16
                                       CELL THICKNESS (DZ)      =   5.000000     FOR LAYER 17
                                       CELL THICKNESS (DZ)      =   5.000000     FOR LAYER 18
                                       CELL THICKNESS (DZ)      =   5.000000     FOR LAYER 19
                                       CELL THICKNESS (DZ)      =   5.000000     FOR LAYER 20
                                       CELL THICKNESS (DZ)      =   5.000000     FOR LAYER 21
                                       CELL THICKNESS (DZ)      =   5.000000     FOR LAYER 22
                                       CELL THICKNESS (DZ)      =   5.000000     FOR LAYER 23
                                       POROSITY                 =  0.2000000     FOR LAYER  1
                                       POROSITY                 =  0.2000000     FOR LAYER  2
                                       POROSITY                 =  0.2000000     FOR LAYER  3
                                       POROSITY                 =  0.2000000     FOR LAYER  4
                                       POROSITY                 =  0.2000000     FOR LAYER  5
                                       POROSITY                 =  0.2000000     FOR LAYER  6
                                       POROSITY                 =  0.2000000     FOR LAYER  7
                                       POROSITY                 =  0.2000000     FOR LAYER  8
                                       POROSITY                 =  0.2000000     FOR LAYER  9
                                       POROSITY                 =  0.2000000     FOR LAYER 10
                                       POROSITY                 =  0.2000000     FOR LAYER 11
                                       POROSITY                 =  0.2000000     FOR LAYER 12
                                       POROSITY                 =  0.2000000     FOR LAYER 13
                                       POROSITY                 =  0.2000000     FOR LAYER 14
                                       POROSITY                 =  0.2000000     FOR LAYER 15
                                       POROSITY                 =  0.2000000     FOR LAYER 16
                                       POROSITY                 =  0.2000000     FOR LAYER 17
                                       POROSITY                 =  0.2000000     FOR LAYER 18
                                       POROSITY                 =  0.2000000     FOR LAYER 19
                                       POROSITY                 =  0.2000000     FOR LAYER 20
                                       POROSITY                 =  0.2000000     FOR LAYER 21
                                       POROSITY                 =  0.2000000     FOR LAYER 22
                                       POROSITY                 =  0.2000000     FOR LAYER 23

                     CONCN. BOUNDARY ARRAY    FOR LAYER  1 READ ON UNIT 81 USING FORMAT: "(25I3)              "
                     ------------------------------------------------------------------------------------------

                1           2           3           4           5           6           7           8           9          10
               11          12          13          14          15          16          17          18          19          20
               21          22          23          24          25          26          27          28          29          30
               31          32          33          34          35          36          37          38          39          40
               41          42          43          44          45          46          47          48          49          50
               51          52          53          54          55          56          57          58          59          60
               61          62          63          64          65          66          67          68          69          70
               71          72          73          74          75          76          77          78          79          80
               81          82          83          84          85          86          87          88          89          90
               91          92          93          94          95          96          97          98          99         100
 ............................................................................................................................
   1            1           1           1           1           1           1           1           1           1           1
                1           1           1           1           1           1           1           1           1           1
                1           1           1           1           1           1           1           1           1           1
                1           1           1           1           1           1           1           1           1           1
                1           1           1           1           1           1           1           1           1           1
                1           1           1           1           1           1           1           1           1           1
                1           1           1           1           1           1           1           1           1           1
                1           0           0           0           0           0           0           0           0           0
                0           0           0           0           0           0           0           0           0           0
                0           0           0           0           0           0           0           0           0           0
   2            1           1           1           1           1           1           1           1           1           1
                1           1           1           1           1           1           1           1           1           1
                1           1           1           1           1           1           1           1           1           1
                1           1           1           1           1           1           1           1           1           1
                1           1           1           1           1           1           1           1           1           1
                1           1           1           1           1           1           1           1           1           1
                1           1           1           1           1           1           1           1           1           1
                1           0           0           0           0           0           0           0           0           0
                0           0           0           0           0           0           0           0           0           0
                0           0           0           0           0           0           0           0           0           0
   3            1           1           1           1           1           1           1           1           1           1
                1           1           1           1           1           1           1           1           1           1
                1           1           1           1           1           1           1           1           1           1
                1           1           1           1           1           1           1           1           1           1
                1           1           1           1           1           1           1           1           1           1
                1           1           1           1           1           1           1           1           1           1
                1           1           1           1           1           1           1           1           1           1
                1           0           0           0           0           0           0           0           0           0
                0           0           0           0           0           0           0           0           0           0
                0           0           0           0           0           0           0           0           0           0
   4            1           1           1           1           1           1           1           1           1           1
                1           1           1           1           1           1           1           1           1           1
                1           1           1           1           1           1           1           1           1           1
                1           1           1           1           1           1           1           1           1           1
                1           1           1           1           1           1           1           1           1           1
                1           1           1           1           1           1           1           1           1           1
                1           1           1           1           1           1           1           1           1           1
                1           0           0           0           0           0           0           0           0           0
                0           0           0           0           0           0           0           0           0           0
                0           0           0           0           0           0           0           0           0           0
   5            1           1           1           1           1           1           1           1           1           1
                1           1           1           1           1           1           1           1           1           1
                1           1           1           1           1           1           1           1           1           1
                1           1           1           1           1           1           1           1           1           1
                1           1           1           1           1           1           1           1           1           1
                1           1           1           1           1           1           1           1           1           1
                1           1           1           1           1           1           1           1           1           1
                1           0           0           0           0           0           0           0           0           0
                0           0           0           0           0           0           0           0           0           0
                0           0           0           0           0           0           0           0           0           0
   6            1           1           1           1           1           1           1           1           1           1
                1           1           1           1           1           1           1           1           1           1
                1           1           1           1           1           1           1           1           1           1
                1           1           1           1           1           1           1           1           1           1
                1           1           1           1           1           1           1           1           1           1
                1           1           1           1           1           1           1           1           1           1
                1           1           1           1           1           1           1           1           1           1
                1           0           0           0           0           0           0           0           0           0
                0           0           0           0           0           0           0           0           0           0
                0           0           0           0           0           0           0           0           0           0
   7            1           1           1           1           1           1           1           1           1           1
                1           1           1           1           1           1           1           1           1           1
                1           1           1           1           1           1           1           1           1           1
                1           1           1           1           1           1           1           1           1           1
                1           1           1           1           1           1           1           1           1           1
                1           1           1           1           1           1           1           1           1           1
                1           1           1           1           1           1           1           1           1           1
                1           0           0           0           0           0           0           0           0           0
                0           0           0           0           0           0           0           0           0           0
                0           0           0           0           0           0           0           0           0           0
   8            1           1           1           1           1           1           1           1           1           1
                1           1           1           1           1           1           1           1           1           1
                1           1           1           1           1           1           1           1           1           1
                1           1           1           1           1           1           1           1           1           1
                1           1           1           1           1           1           1           1           1           1
                1           1           1           1           1           1           1           1           1           1
                1           1           1           1           1           1           1           1           1           1
                1           0           0           0           0           0           0           0           0           0
                0           0           0           0           0           0           0           0           0           0
                0           0           0           0           0           0           0           0           0           0
   9            1           1           1           1           1           1           1           1           1           1
                1           1           1           1           1           1           1           1           1           1
                1           1           1           1           1           1           1           1           1           1
                1           1           1           1           1           1           1           1           1           1
                1           1           1           1           1           1           1           1           1           1
                1           1           1           1           1           1           1           1           1           1
                1           1           1           1           1           1           1           1           1           1
                1           0           0           0           0           0           0           0           0           0
                0           0           0           0           0           0           0           0           0           0
                0           0           0           0           0           0           0           0           0           0
  10            1           1           1           1           1           1           1           1           1           1
                1           1           1           1           1           1           1           1           1           1
                1           1           1           1           1           1           1           1           1           1
                1           1           1           1           1           1           1           1           1           1
                1           1           1           1           1           1           1           1           1           1
                1           1           1           1           1           1           1           1           1           1
                1           1           1           1           1           1           1           1           1           1
                1           0           0           0           0           0           0           0           0           0
                0           0           0           0           0           0           0           0           0           0
                0           0           0           0           0           0           0           0           0           0
  11            1           1           1           1           1           1           1           1           1           1
                1           1           1           1           1           1           1           1           1           1
                1           1           1           1           1           1           1           1           1           1
                1           1           1           1           1           1           1           1           1           1
                1           1           1           1           1           1           1           1           1           1
                1           1           1           1           1           1           1           1           1           1
                1           1           1           1           1           1           1           1           1           1
                1           0           0           0           0           0           0           0           0           0
                0           0           0           0           0           0           0           0           0           0
                0           0           0           0           0           0           0           0           0           0
  12            1           1           1           1           1           1           1           1           1           1
                1           1           1           1           1           1           1           1           1           1
                1           1           1           1           1           1           1           1           1           1
                1           1           1           1           1           1           1           1           1           1
                1           1           1           1           1           1           1           1           1           1
                1           1           1           1           1           1           1           1           1           1
                1           1           1           1           1           1           1           1           1           1
                1           0           0           0           0           0           0           0           0           0
                0           0           0           0           0           0           0           0           0           0
                0           0           0           0           0           0           0           0           0           0
  13            1           1           1           1           1           1           1           1           1           1
                1           1           1           1           1           1           1           1           1           1
                1           1           1           1           1           1           1           1           1           1
                1           1           1           1           1           1           1           1           1           1
                1           1           1           1           1           1           1           1           1           1
                1           1           1           1           1           1           1           1           1           1
                1           1           1           1           1           1           1           1           1           1
                1           0           0           0           0           0           0           0           0           0
                0           0           0           0           0           0           0           0           0           0
                0           0           0           0           0           0           0           0           0           0
  14            1           1           1           1           1           1           1           1           1           1
                1           1           1           1           1           1           1           1           1           1
                1           1           1           1           1           1           1           1           1           1
                1           1           1           1           1           1           1           1           1           1
                1           1           1           1           1           1           1           1           1           1
                1           1           1           1           1           1           1           1           1           1
                1           1           1           1           1           1           1           1           1           1
                1           0           0           0           0           0           0           0           0           0
                0           0           0           0           0           0           0           0           0           0
                0           0           0           0           0           0           0           0           0           0
  15            1           1           1           1           1           1           1           1           1           1
                1           1           1           1           1           1           1           1           1           1
                1           1           1           1           1           1           1           1           1           1
                1           1           1           1           1           1           1           1           1           1
                1           1           1           1           1           1           1           1           1           1
                1           1           1           1           1           1           1           1           1           1
                1           1           1           1           1           1           1           1           1           1
                1           0           0           0           0           0           0           0           0           0
                0           0           0           0           0           0           0           0           0           0
                0           0           0           0           0           0           0           0           0           0
  16            1           1           1           1           1           1           1           1           1           1
                1           1           1           1           1           1           1           1           1           1
                1           1           1           1           1           1           1           1           1           1
                1           1           1           1           1           1           1           1           1           1
                1           1           1           1           1           1           1           1           1           1
                1           1           1           1           1           1           1           1           1           1
                1           1           1           1           1           1           1           1           1           1
                1           0           0           0           0           0           0           0           0           0
                0           0           0           0           0           0           0           0           0           0
                0           0           0           0           0           0           0           0           0           0
  17            1           1           1           1           1           1           1           1           1           1
                1           1           1           1           1           1           1           1           1           1
                1           1           1           1           1           1           1           1           1           1
                1           1           1           1           1           1           1           1           1           1
                1           1           1           1           1           1           1           1           1           1
                1           1           1           1           1           1           1           1           1           1
                1           1           1           1           1           1           1           1           1           1
                1           0           0           0           0           0           0           0           0           0
                0           0           0           0           0           0           0           0           0           0
                0           0           0           0           0           0           0           0           0           0
  18            1           1           1           1           1           1           1           1           1           1
                1           1           1           1           1           1           1           1           1           1
                1           1           1           1           1           1           1           1           1           1
                1           1           1           1           1           1           1           1           1           1
                1           1           1           1           1           1           1           1           1           1
                1           1           1           1           1           1           1           1           1           1
                1           1           1           1           1           1           1           1           1           1
                1           0           0           0           0           0           0           0           0           0
                0           0           0           0           0           0           0           0           0           0
                0           0           0           0           0           0           0           0           0           0
  19            1           1           1           1           1           1           1           1           1           1
                1           1           1           1           1           1           1           1           1           1
                1           1           1           1           1           1           1           1           1           1
                1           1           1           1           1           1           1           1           1           1
                1           1           1           1           1           1           1           1           1           1
                1           1           1           1           1           1           1           1           1           1
                1           1           1           1           1           1           1           1           1           1
                1           0           0           0           0           0           0           0           0           0
                0           0           0           0           0           0           0           0           0           0
                0           0           0           0           0           0           0           0           0           0
  20            1           1           1           1           1           1           1           1           1           1
                1           1           1           1           1           1           1           1           1           1
                1           1           1           1           1           1           1           1           1           1
                1           1           1           1           1           1           1           1           1           1
                1           1           1           1           1           1           1           1           1           1
                1           1           1           1           1           1           1           1           1           1
                1           1           1           1           1           1           1           1           1           1
                1           0           0           0           0           0           0           0           0           0
                0           0           0           0           0           0           0           0           0           0
                0           0           0           0           0           0           0           0           0           0
  21            1           1           1           1           1           1           1           1           1           1
                1           1           1           1           1           1           1           1           1           1
                1           1           1           1           1           1           1           1           1           1
                1           1           1           1           1           1           1           1           1           1
                1           1           1           1           1           1           1           1           1           1
                1           1           1           1           1           1           1           1           1           1
                1           1           1           1           1           1           1           1           1           1
                1           0           0           0           0           0           0           0           0           0
                0           0           0           0           0           0           0           0           0           0
                0           0           0           0           0           0           0           0           0           0
  22            1           1           1           1           1           1           1           1           1           1
                1           1           1           1           1           1           1           1           1           1
                1           1           1           1           1           1           1           1           1           1
                1           1           1           1           1           1           1           1           1           1
                1           1           1           1           1           1           1           1           1           1
                1           1           1           1           1           1           1           1           1           1
                1           1           1           1           1           1           1           1           1           1
                1           0           0           0           0           0           0           0           0           0
                0           0           0           0           0           0           0           0           0           0
                0           0           0           0           0           0           0           0           0           0
  23            1           1           1           1           1           1           1           1           1           1
                1           1           1           1           1           1           1           1           1           1
                1           1           1           1           1           1           1           1           1           1
                1           1           1           1           1           1           1           1           1           1
                1           1           1           1           1           1           1           1           1           1
                1           1           1           1           1           1           1           1           1           1
                1           1           1           1           1           1           1           1           1           1
                1           0           0           0           0           0           0           0           0           0
                0           0           0           0           0           0           0           0           0           0
                0           0           0           0           0           0           0           0           0           0
  24            1           1           1           1           1           1           1           1           1           1
                1           1           1           1           1           1           1           1           1           1
                1           1           1           1           1           1           1           1           1           1
                1           1           1           1           1           1           1           1           1           1
                1           1           1           1           1           1           1           1           1           1
                1           1           1           1           1           1           1           1           1           1
                1           1           1           1           1           1           1           1           1           1
                1           0           0           0           0           0           0           0           0           0
                0           0           0           0           0           0           0           0           0           0
                0           0           0           0           0           0           0           0           0           0
  25            1           1           1           1           1           1           1           1           1           1
                1           1           1           1           1           1           1           1           1           1
                1           1           1           1           1           1           1           1           1           1
                1           1           1           1           1           1           1           1           1           1
                1           1           1           1           1           1           1           1           1           1
                1           1           1           1           1           1           1           1           1           1
                1           1           1           1           1           1           1           1           1           1
                1           0           0           0           0           0           0           0           0           0
                0           0           0           0           0           0           0           0           0           0
                0           0           0           0           0           0           0           0           0           0
  26            1           1           1           1           1           1           1           1           1           1
                1           1           1           1           1           1           1           1           1           1
                1           1           1           1           1           1           1           1           1           1
                1           1           1           1           1           1           1           1           1           1
                1           1           1           1           1           1           1           1           1           1
                1           1           1           1           1           1           1           1           1           1
                1           1           1           1           1           1           1           1           1           1
                1           0           0           0           0           0           0           0           0           0
                0           0           0           0           0           0           0           0           0           0
                0           0           0           0           0           0           0           0           0           0
  27            1           1           1           1           1           1           1           1           1           1
                1           1           1           1           1           1           1           1           1           1
                1           1           1           1           1           1           1           1           1           1
                1           1           1           1           1           1           1           1           1           1
                1           1           1           1           1           1           1           1           1           1
                1           1           1           1           1           1           1           1           1           1
                1           1           1           1           1           1           1           1           1           1
                1           0           0           0           0           0           0           0           0           0
                0           0           0           0           0           0           0           0           0           0
                0           0           0           0           0           0           0           0           0           0
  28            1           1           1           1           1           1           1           1           1           1
                1           1           1           1           1           1           1           1           1           1
                1           1           1           1           1           1           1           1           1           1
                1           1           1           1           1           1           1           1           1           1
                1           1           1           1           1           1           1           1           1           1
                1           1           1           1           1           1           1           1           1           1
                1           1           1           1           1           1           1           1           1           1
                1           0           0           0           0           0           0           0           0           0
                0           0           0           0           0           0           0           0           0           0
                0           0           0           0           0           0           0           0           0           0
  29            1           1           1           1           1           1           1           1           1           1
                1           1           1           1           1           1           1           1           1           1
                1           1           1           1           1           1           1           1           1           1
                1           1           1           1           1           1           1           1           1           1
                1           1           1           1           1           1           1           1           1           1
                1           1           1           1           1           1           1           1           1           1
                1           1           1           1           1           1           1           1           1           1
                1           0           0           0           0           0           0           0           0           0
                0           0           0           0           0           0           0           0           0           0
                0           0           0           0           0           0           0           0           0           0
  30            1           1           1           1           1           1           1           1           1           1
                1           1           1           1           1           1           1           1           1           1
                1           1           1           1           1           1           1           1           1           1
                1           1           1           1           1           1           1           1           1           1
                1           1           1           1           1           1           1           1           1           1
                1           1           1           1           1           1           1           1           1           1
                1           1           1           1           1           1           1           1           1           1
                1           0           0           0           0           0           0           0           0           0
                0           0           0           0           0           0           0           0           0           0
                0           0           0           0           0           0           0           0           0           0
  31            1           1           1           1           1           1           1           1           1           1
                1           1           1           1           1           1           1           1           1           1
                1           1           1           1           1           1           1           1           1           1
                1           1           1           1           1           1           1           1           1           1
                1           1           1           1           1           1           1           1           1           1
                1           1           1           1           1           1           1           1           1           1
                1           1           1           1           1           1           1           1           1           1
                1           0           0           0           0           0           0           0           0           0
                0           0           0           0           0           0           0           0           0           0
                0           0           0           0           0           0           0           0           0           0
  32            1           1           1           1           1           1           1           1           1           1
                1           1           1           1           1           1           1           1           1           1
                1           1           1           1           1           1           1           1           1           1
                1           1           1           1           1           1           1           1           1           1
                1           1           1           1           1           1           1           1           1           1
                1           1           1           1           1           1           1           1           1           1
                1           1           1           1           1           1           1           1           1           1
                1           0           0           0           0           0           0           0           0           0
                0           0           0           0           0           0           0           0           0           0
                0           0           0           0           0           0           0           0           0           0
  33            1           1           1           1           1           1           1           1           1           1
                1           1           1           1           1           1           1           1           1           1
                1           1           1           1           1           1           1           1           1           1
                1           1           1           1           1           1           1           1           1           1
                1           1           1           1           1           1           1           1           1           1
                1           1           1           1           1           1           1           1           1           1
                1           1           1           1           1           1           1           1           1           1
                1           0           0           0           0           0           0           0           0           0
                0           0           0           0           0           0           0           0           0           0
                0           0           0           0           0           0           0           0           0           0
  34            1           1           1           1           1           1           1           1           1           1
                1           1           1           1           1           1           1           1           1           1
                1           1           1           1           1           1           1           1           1           1
                1           1           1           1           1           1           1           1           1           1
                1           1           1           1           1           1           1           1           1           1
                1           1           1           1           1           1           1           1           1           1
                1           1           1           1           1           1           1           1           1           1
                1           0           0           0           0           0           0           0           0           0
                0           0           0           0           0           0           0           0           0           0
                0           0           0           0           0           0           0           0           0           0
  35            1           1           1           1           1           1           1           1           1           1
                1           1           1           1           1           1           1           1           1           1
                1           1           1           1           1           1           1           1           1           1
                1           1           1           1           1           1           1           1           1           1
                1           1           1           1           1           1           1           1           1           1
                1           1           1           1           1           1           1           1           1           1
                1           1           1           1           1           1           1           1           1           1
                1           0           0           0           0           0           0           0           0           0
                0           0           0           0           0           0           0           0           0           0
                0           0           0           0           0           0           0           0           0           0
  36            1           1           1           1           1           1           1           1           1           1
                1           1           1           1           1           1           1           1           1           1
                1           1           1           1           1           1           1           1           1           1
                1           1           1           1           1           1           1           1           1           1
                1           1           1           1           1           1           1           1           1           1
                1           1           1           1           1           1           1           1           1           1
                1           1           1           1           1           1           1           1           1           1
                1           0           0           0           0           0           0           0           0           0
                0           0           0           0           0           0           0           0           0           0
                0           0           0           0           0           0           0           0           0           0
  37            1           1           1           1           1           1           1           1           1           1
                1           1           1           1           1           1           1           1           1           1
                1           1           1           1           1           1           1           1           1           1
                1           1           1           1           1           1           1           1           1           1
                1           1           1           1           1           1           1           1           1           1
                1           1           1           1           1           1           1           1           1           1
                1           1           1           1           1           1           1           1           1           1
                1           0           0           0           0           0           0           0           0           0
                0           0           0           0           0           0           0           0           0           0
                0           0           0           0           0           0           0           0           0           0
  38            1           1           1           1           1           1           1           1           1           1
                1           1           1           1           1           1           1           1           1           1
                1           1           1           1           1           1           1           1           1           1
                1           1           1           1           1           1           1           1           1           1
                1           1           1           1           1           1           1           1           1           1
                1           1           1           1           1           1           1           1           1           1
                1           1           1           1           1           1           1           1           1           1
                1           0           0           0           0           0           0           0           0           0
                0           0           0           0           0           0           0           0           0           0
                0           0           0           0           0           0           0           0           0           0
  39            1           1           1           1           1           1           1           1           1           1
                1           1           1           1           1           1           1           1           1           1
                1           1           1           1           1           1           1           1           1           1
                1           1           1           1           1           1           1           1           1           1
                1           1           1           1           1           1           1           1           1           1
                1           1           1           1           1           1           1           1           1           1
                1           1           1           1           1           1           1           1           1           1
                1           0           0           0           0           0           0           0           0           0
                0           0           0           0           0           0           0           0           0           0
                0           0           0           0           0           0           0           0           0           0
  40            1           1           1           1           1           1           1           1           1           1
                1           1           1           1           1           1           1           1           1           1
                1           1           1           1           1           1           1           1           1           1
                1           1           1           1           1           1           1           1           1           1
                1           1           1           1           1           1           1           1           1           1
                1           1           1           1           1           1           1           1           1           1
                1           1           1           1           1           1           1           1           1           1
                1           0           0           0           0           0           0           0           0           0
                0           0           0           0           0           0           0           0           0           0
                0           0           0           0           0           0           0           0           0           0
  41            1           1           1           1           1           1           1           1           1           1
                1           1           1           1           1           1           1           1           1           1
                1           1           1           1           1           1           1           1           1           1
                1           1           1           1           1           1           1           1           1           1
                1           1           1           1           1           1           1           1           1           1
                1           1           1           1           1           1           1           1           1           1
                1           1           1           1           1           1           1           1           1           1
                1           0           0           0           0           0           0           0           0           0
                0           0           0           0           0           0           0           0           0           0
                0           0           0           0           0           0           0           0           0           0
  42            1           1           1           1           1           1           1           1           1           1
                1           1           1           1           1           1           1           1           1           1
                1           1           1           1           1           1           1           1           1           1
                1           1           1           1           1           1           1           1           1           1
                1           1           1           1           1           1           1           1           1           1
                1           1           1           1           1           1           1           1           1           1
                1           1           1           1           1           1           1           1           1           1
                1           0           0           0           0           0           0           0           0           0
                0           0           0           0           0           0           0           0           0           0
                0           0           0           0           0           0           0           0           0           0
  43            1           1           1           1           1           1           1           1           1           1
                1           1           1           1           1           1           1           1           1           1
                1           1           1           1           1           1           1           1           1           1
                1           1           1           1           1           1           1           1           1           1
                1           1           1           1           1           1           1           1           1           1
                1           1           1           1           1           1           1           1           1           1
                1           1           1           1           1           1           1           1           1           1
                1           0           0           0           0           0           0           0           0           0
                0           0           0           0           0           0           0           0           0           0
                0           0           0           0           0           0           0           0           0           0
  44            1           1           1           1           1           1           1           1           1           1
                1           1           1           1           1           1           1           1           1           1
                1           1           1           1           1           1           1           1           1           1
                1           1           1           1           1           1           1           1           1           1
                1           1           1           1           1           1           1           1           1           1
                1           1           1           1           1           1           1           1           1           1
                1           1           1           1           1           1           1           1           1           1
                1           0           0           0           0           0           0           0           0           0
                0           0           0           0           0           0           0           0           0           0
                0           0           0           0           0           0           0           0           0           0
  45            1           1           1           1           1           1           1           1           1           1
                1           1           1           1           1           1           1           1           1           1
                1           1           1           1           1           1           1           1           1           1
                1           1           1           1           1           1           1           1           1           1
                1           1           1           1           1           1           1           1           1           1
                1           1           1           1           1           1           1           1           1           1
                1           1           1           1           1           1           1           1           1           1
                1           0           0           0           0           0           0           0           0           0
                0           0           0           0           0           0           0           0           0           0
                0           0           0           0           0           0           0           0           0           0
  46            1           1           1           1           1           1           1           1           1           1
                1           1           1           1           1           1           1           1           1           1
                1           1           1           1           1           1           1           1           1           1
                1           1           1           1           1           1           1           1           1           1
                1           1           1           1           1           1           1           1           1           1
                1           1           1           1           1           1           1           1           1           1
                1           1           1           1           1           1           1           1           1           1
                1           0           0           0           0           0           0           0           0           0
                0           0           0           0           0           0           0           0           0           0
                0           0           0           0           0           0           0           0           0           0
  47            1           1           1           1           1           1           1           1           1           1
                1           1           1           1           1           1           1           1           1           1
                1           1           1           1           1           1           1           1           1           1
                1           1           1           1           1           1           1           1           1           1
                1           1           1           1           1           1           1           1           1           1
                1           1           1           1           1           1           1           1           1           1
                1           1           1           1           1           1           1           1           1           1
                1           0           0           0           0           0           0           0           0           0
                0           0           0           0           0           0           0           0           0           0
                0           0           0           0           0           0           0           0           0           0
  48            1           1           1           1           1           1           1           1           1           1
                1           1           1           1           1           1           1           1           1           1
                1           1           1           1           1           1           1           1           1           1
                1           1           1           1           1           1           1           1           1           1
                1           1           1           1           1           1           1           1           1           1
                1           1           1           1           1           1           1           1           1           1
                1           1           1           1           1           1           1           1           1           1
                1           0           0           0           0           0           0           0           0           0
                0           0           0           0           0           0           0           0           0           0
                0           0           0           0           0           0           0           0           0           0
  49            1           1           1           1           1           1           1           1           1           1
                1           1           1           1           1           1           1           1           1           1
                1           1           1           1           1           1           1           1           1           1
                1           1           1           1           1           1           1           1           1           1
                1           1           1           1           1           1           1           1           1           1
                1           1           1           1           1           1           1           1           1           1
                1           1           1           1           1           1           1           1           1           1
                1           0           0           0           0           0           0           0           0           0
                0           0           0           0           0           0           0           0           0           0
                0           0           0           0           0           0           0           0           0           0
  50            1           1           1           1           1           1           1           1           1           1
                1           1           1           1           1           1           1           1           1           1
                1           1           1           1           1           1           1           1           1           1
                1           1           1           1           1           1           1           1           1           1
                1           1           1           1           1           1           1           1           1           1
                1           1           1           1           1           1           1           1           1           1
                1           1           1           1           1           1           1           1           1           1
                1           0           0           0           0           0           0           0           0           0
                0           0           0           0           0           0           0           0           0           0
                0           0           0           0           0           0           0           0           0           0
  51            1           1           1           1           1           1           1           1           1           1
                1           1           1           1           1           1           1           1           1           1
                1           1           1           1           1           1           1           1           1           1
                1           1           1           1           1           1           1           1           1           1
                1           1           1           1           1           1           1           1           1           1
                1           1           1           1           1           1           1           1           1           1
                1           1           1           1           1           1           1           1           1           1
                1           0           0           0           0           0           0           0           0           0
                0           0           0           0           0           0           0           0           0           0
                0           0           0           0           0           0           0           0           0           0
[...]
     3 TOTAL ITERATIONS
     1 CALLS TO GCG PACKAGE FOR TRANSPORT TIME STEP 253 IN FLOW TIME STEP   1 STRESS PERIOD   1
     3 TOTAL ITERATIONS
     1 CALLS TO GCG PACKAGE FOR TRANSPORT TIME STEP 254 IN FLOW TIME STEP   1 STRESS PERIOD   1
     3 TOTAL ITERATIONS
     1 CALLS TO GCG PACKAGE FOR TRANSPORT TIME STEP 255 IN FLOW TIME STEP   1 STRESS PERIOD   1
     3 TOTAL ITERATIONS
  MAXIMUM CONCENTRATION CHANGES FOR EACH ITERATION:
  MAX. CHANGE LAYER,ROW,COL MAX. CHANGE LAYER,ROW,COL MAX. CHANGE LAYER,ROW,COL MAX. CHANGE LAYER,ROW,COL MAX. CHANGE LAYER,ROW,COL
 ------------------------------------------------------------------------------------------------------------------------------------
   0.2614E-02 (  4,  2, 75)  0.1313E-05 (  4,  1, 73)  0.6397E-08 (  1,  1, 71)
     1 CALLS TO GCG PACKAGE FOR TRANSPORT TIME STEP 256 IN FLOW TIME STEP   1 STRESS PERIOD   1
     3 TOTAL ITERATIONS
     1 CALLS TO GCG PACKAGE FOR TRANSPORT TIME STEP 257 IN FLOW TIME STEP   1 STRESS PERIOD   1
     3 TOTAL ITERATIONS
     1 CALLS TO GCG PACKAGE FOR TRANSPORT TIME STEP 258 IN FLOW TIME STEP   1 STRESS PERIOD   1
     3 TOTAL ITERATIONS
     1 CALLS TO GCG PACKAGE FOR TRANSPORT TIME STEP 259 IN FLOW TIME STEP   1 STRESS PERIOD   1
     3 TOTAL ITERATIONS
     1 CALLS TO GCG PACKAGE FOR TRANSPORT TIME STEP 260 IN FLOW TIME STEP   1 STRESS PERIOD   1
     3 TOTAL ITERATIONS
  MAXIMUM CONCENTRATION CHANGES FOR EACH ITERATION:
  MAX. CHANGE LAYER,ROW,COL MAX. CHANGE LAYER,ROW,COL MAX. CHANGE LAYER,ROW,COL MAX. CHANGE LAYER,ROW,COL MAX. CHANGE LAYER,ROW,COL
 ------------------------------------------------------------------------------------------------------------------------------------
   0.2576E-02 (  4,  2, 75)  0.1245E-05 (  4,  1, 73)  0.5886E-08 (  1,  1, 71)



 >>>>>>>>>>>>>>>>>>>>>>>>>>>>>>>>>>>>>>>>>>>>>>>>>>>>>>>FOR COMPONENT NO. 01<<<<<<<<<<<<<<<<<<<<<<<<<<<<<<<<<<<<<<<<<<<<<<<<<<<<<<<


                                            -------------------------------------------
                                                      TRANSPORT STEP NO.  260
                                            -------------------------------------------

 TOTAL ELAPSED TIME SINCE BEGINNING OF SIMULATION =   6500.000    D   
 .....................................................................

                     CUMMULATIVE MASS BUDGETS AT END OF TRANSPORT STEP  260, TIME STEP    1, STRESS PERIOD    1
                     ------------------------------------------------------------------------------------------

                                                             IN                           OUT
                                                      ----------------             ----------------
                               CONSTANT CONCENTRATION:    0.000000                    0.000000    
                                        CONSTANT HEAD:    0.000000                  -0.3309040E+10
                                                WELLS:    0.000000                   -13.16765    
                                             RECHARGE:    0.000000                    0.000000    
                                MASS STORAGE (SOLUTE):   0.3455250E+10              -0.1462063E+09
                            ---------------------------------------------------------------------------
                                              [TOTAL]:   0.3455250E+10 KG           -0.3455250E+10 KG  

                                                          NET (IN - OUT):   -90.24347    
                                                   DISCREPANCY (PERCENT):  -0.2611778E-05
     1 CALLS TO GCG PACKAGE FOR TRANSPORT TIME STEP 261 IN FLOW TIME STEP   1 STRESS PERIOD   1
     3 TOTAL ITERATIONS
     1 CALLS TO GCG PACKAGE FOR TRANSPORT TIME STEP 262 IN FLOW TIME STEP   1 STRESS PERIOD   1
     3 TOTAL ITERATIONS
     1 CALLS TO GCG PACKAGE FOR TRANSPORT TIME STEP 263 IN FLOW TIME STEP   1 STRESS PERIOD   1
     3 TOTAL ITERATIONS
     1 CALLS TO GCG PACKAGE FOR TRANSPORT TIME STEP 264 IN FLOW TIME STEP   1 STRESS PERIOD   1
     3 TOTAL ITERATIONS
     1 CALLS TO GCG PACKAGE FOR TRANSPORT TIME STEP 265 IN FLOW TIME STEP   1 STRESS PERIOD   1
     3 TOTAL ITERATIONS
  MAXIMUM CONCENTRATION CHANGES FOR EACH ITERATION:
  MAX. CHANGE LAYER,ROW,COL MAX. CHANGE LAYER,ROW,COL MAX. CHANGE LAYER,ROW,COL MAX. CHANGE LAYER,ROW,COL MAX. CHANGE LAYER,ROW,COL
 ------------------------------------------------------------------------------------------------------------------------------------
   0.2537E-02 (  4,  2, 75)  0.1180E-05 (  4,  1, 73)  0.5416E-08 (  1,  1, 71)
     1 CALLS TO GCG PACKAGE FOR TRANSPORT TIME STEP 266 IN FLOW TIME STEP   1 STRESS PERIOD   1
     3 TOTAL ITERATIONS
     1 CALLS TO GCG PACKAGE FOR TRANSPORT TIME STEP 267 IN FLOW TIME STEP   1 STRESS PERIOD   1
     3 TOTAL ITERATIONS
     1 CALLS TO GCG PACKAGE FOR TRANSPORT TIME STEP 268 IN FLOW TIME STEP   1 STRESS PERIOD   1
     3 TOTAL ITERATIONS
     1 CALLS TO GCG PACKAGE FOR TRANSPORT TIME STEP 269 IN FLOW TIME STEP   1 STRESS PERIOD   1
     3 TOTAL ITERATIONS
     1 CALLS TO GCG PACKAGE FOR TRANSPORT TIME STEP 270 IN FLOW TIME STEP   1 STRESS PERIOD   1
     3 TOTAL ITERATIONS
  MAXIMUM CONCENTRATION CHANGES FOR EACH ITERATION:
  MAX. CHANGE LAYER,ROW,COL MAX. CHANGE LAYER,ROW,COL MAX. CHANGE LAYER,ROW,COL MAX. CHANGE LAYER,ROW,COL MAX. CHANGE LAYER,ROW,COL
 ------------------------------------------------------------------------------------------------------------------------------------
   0.2496E-02 (  4,  2, 75)  0.1119E-05 (  4,  1, 73)  0.5231E-08 ( 22,  2, 87)



 >>>>>>>>>>>>>>>>>>>>>>>>>>>>>>>>>>>>>>>>>>>>>>>>>>>>>>>FOR COMPONENT NO. 01<<<<<<<<<<<<<<<<<<<<<<<<<<<<<<<<<<<<<<<<<<<<<<<<<<<<<<<


                                            -------------------------------------------
                                                      TRANSPORT STEP NO.  270
                                            -------------------------------------------

 TOTAL ELAPSED TIME SINCE BEGINNING OF SIMULATION =   6750.000    D   
 .....................................................................

                     CUMMULATIVE MASS BUDGETS AT END OF TRANSPORT STEP  270, TIME STEP    1, STRESS PERIOD    1
                     ------------------------------------------------------------------------------------------

                                                             IN                           OUT
                                                      ----------------             ----------------
                               CONSTANT CONCENTRATION:    0.000000                    0.000000    
                                        CONSTANT HEAD:    0.000000                  -0.3381644E+10
                                                WELLS:    0.000000                   -14.85932    
                                             RECHARGE:    0.000000                    0.000000    
                                MASS STORAGE (SOLUTE):   0.3528012E+10              -0.1463637E+09
                            ---------------------------------------------------------------------------
                                              [TOTAL]:   0.3528012E+10 KG           -0.3528012E+10 KG  

                                                          NET (IN - OUT):   -90.58985    
                                                   DISCREPANCY (PERCENT):  -0.2567731E-05
     1 CALLS TO GCG PACKAGE FOR TRANSPORT TIME STEP 271 IN FLOW TIME STEP   1 STRESS PERIOD   1
     3 TOTAL ITERATIONS
     1 CALLS TO GCG PACKAGE FOR TRANSPORT TIME STEP 272 IN FLOW TIME STEP   1 STRESS PERIOD   1
     3 TOTAL ITERATIONS
     1 CALLS TO GCG PACKAGE FOR TRANSPORT TIME STEP 273 IN FLOW TIME STEP   1 STRESS PERIOD   1
     3 TOTAL ITERATIONS
     1 CALLS TO GCG PACKAGE FOR TRANSPORT TIME STEP 274 IN FLOW TIME STEP   1 STRESS PERIOD   1
     3 TOTAL ITERATIONS
     1 CALLS TO GCG PACKAGE FOR TRANSPORT TIME STEP 275 IN FLOW TIME STEP   1 STRESS PERIOD   1
     3 TOTAL ITERATIONS
  MAXIMUM CONCENTRATION CHANGES FOR EACH ITERATION:
  MAX. CHANGE LAYER,ROW,COL MAX. CHANGE LAYER,ROW,COL MAX. CHANGE LAYER,ROW,COL MAX. CHANGE LAYER,ROW,COL MAX. CHANGE LAYER,ROW,COL
 ------------------------------------------------------------------------------------------------------------------------------------
   0.2454E-02 (  4,  2, 75)  0.1060E-05 (  4,  1, 73)  0.5310E-08 ( 22,  2, 87)
     1 CALLS TO GCG PACKAGE FOR TRANSPORT TIME STEP 276 IN FLOW TIME STEP   1 STRESS PERIOD   1
     3 TOTAL ITERATIONS
     1 CALLS TO GCG PACKAGE FOR TRANSPORT TIME STEP 277 IN FLOW TIME STEP   1 STRESS PERIOD   1
     3 TOTAL ITERATIONS
     1 CALLS TO GCG PACKAGE FOR TRANSPORT TIME STEP 278 IN FLOW TIME STEP   1 STRESS PERIOD   1
     3 TOTAL ITERATIONS
     1 CALLS TO GCG PACKAGE FOR TRANSPORT TIME STEP 279 IN FLOW TIME STEP   1 STRESS PERIOD   1
     3 TOTAL ITERATIONS
     1 CALLS TO GCG PACKAGE FOR TRANSPORT TIME STEP 280 IN FLOW TIME STEP   1 STRESS PERIOD   1
     3 TOTAL ITERATIONS
  MAXIMUM CONCENTRATION CHANGES FOR EACH ITERATION:
  MAX. CHANGE LAYER,ROW,COL MAX. CHANGE LAYER,ROW,COL MAX. CHANGE LAYER,ROW,COL MAX. CHANGE LAYER,ROW,COL MAX. CHANGE LAYER,ROW,COL
 ------------------------------------------------------------------------------------------------------------------------------------
   0.2411E-02 (  4,  2, 75)  0.1004E-05 (  4,  1, 73)  0.5385E-08 ( 22,  2, 87)



 >>>>>>>>>>>>>>>>>>>>>>>>>>>>>>>>>>>>>>>>>>>>>>>>>>>>>>>FOR COMPONENT NO. 01<<<<<<<<<<<<<<<<<<<<<<<<<<<<<<<<<<<<<<<<<<<<<<<<<<<<<<<


                                            -------------------------------------------
                                                      TRANSPORT STEP NO.  280
                                            -------------------------------------------

 TOTAL ELAPSED TIME SINCE BEGINNING OF SIMULATION =   7000.000    D   
 .....................................................................

                     CUMMULATIVE MASS BUDGETS AT END OF TRANSPORT STEP  280, TIME STEP    1, STRESS PERIOD    1
                     ------------------------------------------------------------------------------------------

                                                             IN                           OUT
                                                      ----------------             ----------------
                               CONSTANT CONCENTRATION:    0.000000                    0.000000    
                                        CONSTANT HEAD:    0.000000                  -0.3451445E+10
                                                WELLS:    0.000000                   -16.66258    
                                             RECHARGE:    0.000000                    0.000000    
                                MASS STORAGE (SOLUTE):   0.3597964E+10              -0.1465145E+09
                            ---------------------------------------------------------------------------
                                              [TOTAL]:   0.3597964E+10 KG           -0.3597964E+10 KG  

                                                          NET (IN - OUT):   -90.95339    
                                                   DISCREPANCY (PERCENT):  -0.2527913E-05
     1 CALLS TO GCG PACKAGE FOR TRANSPORT TIME STEP 281 IN FLOW TIME STEP   1 STRESS PERIOD   1
     2 TOTAL ITERATIONS
     1 CALLS TO GCG PACKAGE FOR TRANSPORT TIME STEP 282 IN FLOW TIME STEP   1 STRESS PERIOD   1
     2 TOTAL ITERATIONS
     1 CALLS TO GCG PACKAGE FOR TRANSPORT TIME STEP 283 IN FLOW TIME STEP   1 STRESS PERIOD   1
     2 TOTAL ITERATIONS
     1 CALLS TO GCG PACKAGE FOR TRANSPORT TIME STEP 284 IN FLOW TIME STEP   1 STRESS PERIOD   1
     2 TOTAL ITERATIONS
     1 CALLS TO GCG PACKAGE FOR TRANSPORT TIME STEP 285 IN FLOW TIME STEP   1 STRESS PERIOD   1
     2 TOTAL ITERATIONS
  MAXIMUM CONCENTRATION CHANGES FOR EACH ITERATION:
  MAX. CHANGE LAYER,ROW,COL MAX. CHANGE LAYER,ROW,COL MAX. CHANGE LAYER,ROW,COL MAX. CHANGE LAYER,ROW,COL MAX. CHANGE LAYER,ROW,COL
 ------------------------------------------------------------------------------------------------------------------------------------
   0.2366E-02 (  4,  2, 75)  0.9733E-06 ( 16,  1, 82)
     1 CALLS TO GCG PACKAGE FOR TRANSPORT TIME STEP 286 IN FLOW TIME STEP   1 STRESS PERIOD   1
     2 TOTAL ITERATIONS
     1 CALLS TO GCG PACKAGE FOR TRANSPORT TIME STEP 287 IN FLOW TIME STEP   1 STRESS PERIOD   1
     2 TOTAL ITERATIONS
     1 CALLS TO GCG PACKAGE FOR TRANSPORT TIME STEP 288 IN FLOW TIME STEP   1 STRESS PERIOD   1
     2 TOTAL ITERATIONS
     1 CALLS TO GCG PACKAGE FOR TRANSPORT TIME STEP 289 IN FLOW TIME STEP   1 STRESS PERIOD   1
     2 TOTAL ITERATIONS
     1 CALLS TO GCG PACKAGE FOR TRANSPORT TIME STEP 290 IN FLOW TIME STEP   1 STRESS PERIOD   1
     2 TOTAL ITERATIONS
  MAXIMUM CONCENTRATION CHANGES FOR EACH ITERATION:
  MAX. CHANGE LAYER,ROW,COL MAX. CHANGE LAYER,ROW,COL MAX. CHANGE LAYER,ROW,COL MAX. CHANGE LAYER,ROW,COL MAX. CHANGE LAYER,ROW,COL
 ------------------------------------------------------------------------------------------------------------------------------------
   0.2321E-02 (  4,  1, 75)  0.9697E-06 ( 16,  1, 82)



 >>>>>>>>>>>>>>>>>>>>>>>>>>>>>>>>>>>>>>>>>>>>>>>>>>>>>>>FOR COMPONENT NO. 01<<<<<<<<<<<<<<<<<<<<<<<<<<<<<<<<<<<<<<<<<<<<<<<<<<<<<<<


                                            -------------------------------------------
                                                      TRANSPORT STEP NO.  290
                                            -------------------------------------------

 TOTAL ELAPSED TIME SINCE BEGINNING OF SIMULATION =   7250.000    D   
 .....................................................................

                     CUMMULATIVE MASS BUDGETS AT END OF TRANSPORT STEP  290, TIME STEP    1, STRESS PERIOD    1
                     ------------------------------------------------------------------------------------------

                                                             IN                           OUT
                                                      ----------------             ----------------
                               CONSTANT CONCENTRATION:    0.000000                    0.000000    
                                        CONSTANT HEAD:    0.000000                  -0.3518533E+10
                                                WELLS:    0.000000                   -18.58059    
                                             RECHARGE:    0.000000                    0.000000    
                                MASS STORAGE (SOLUTE):   0.3665196E+10              -0.1466587E+09
                            ---------------------------------------------------------------------------
                                              [TOTAL]:   0.3665196E+10 KG           -0.3665196E+10 KG  

                                                          NET (IN - OUT):   -120.4742    
                                                   DISCREPANCY (PERCENT):  -0.3286979E-05
     1 CALLS TO GCG PACKAGE FOR TRANSPORT TIME STEP 291 IN FLOW TIME STEP   1 STRESS PERIOD   1
     2 TOTAL ITERATIONS
     1 CALLS TO GCG PACKAGE FOR TRANSPORT TIME STEP 292 IN FLOW TIME STEP   1 STRESS PERIOD   1
     2 TOTAL ITERATIONS
  MAXIMUM CONCENTRATION CHANGES FOR EACH ITERATION:
  MAX. CHANGE LAYER,ROW,COL MAX. CHANGE LAYER,ROW,COL MAX. CHANGE LAYER,ROW,COL MAX. CHANGE LAYER,ROW,COL MAX. CHANGE LAYER,ROW,COL
 ------------------------------------------------------------------------------------------------------------------------------------
   0.2303E-02 (  4,  1, 75)  0.9676E-06 ( 16,  1, 82)



 >>>>>>>>>>>>>>>>>>>>>>>>>>>>>>>>>>>>>>>>>>>>>>>>>>>>>>>FOR COMPONENT NO. 01<<<<<<<<<<<<<<<<<<<<<<<<<<<<<<<<<<<<<<<<<<<<<<<<<<<<<<<


                                            -------------------------------------------
                                                      TRANSPORT STEP NO.  292
                                            -------------------------------------------

 TOTAL ELAPSED TIME SINCE BEGINNING OF SIMULATION =   7300.000    D   
 .....................................................................

                     CUMMULATIVE MASS BUDGETS AT END OF TRANSPORT STEP  292, TIME STEP    1, STRESS PERIOD    1
                     ------------------------------------------------------------------------------------------

                                                             IN                           OUT
                                                      ----------------             ----------------
                               CONSTANT CONCENTRATION:    0.000000                    0.000000    
                                        CONSTANT HEAD:    0.000000                  -0.3531632E+10
                                                WELLS:    0.000000                   -18.97777    
                                             RECHARGE:    0.000000                    0.000000    
                                MASS STORAGE (SOLUTE):   0.3678324E+10              -0.1466867E+09
                            ---------------------------------------------------------------------------
                                              [TOTAL]:   0.3678324E+10 KG           -0.3678324E+10 KG  

                                                          NET (IN - OUT):   -126.3989    
                                                   DISCREPANCY (PERCENT):  -0.3436317E-05

 HEAD WILL BE SAVED ON UNIT   30 AT END OF TIME STEP   1, STRESS PERIOD    1
1
  VOLUMETRIC BUDGET FOR ENTIRE MODEL AT END OF TIME STEP  1 IN STRESS PERIOD   1
  ------------------------------------------------------------------------------

     CUMULATIVE VOLUMES      L**3       RATES FOR THIS TIME STEP      L**3/T
     ------------------                 ------------------------

           IN:                                      IN:
           ---                                      ---
             STORAGE =           0.5582               STORAGE =       7.6467E-05
       CONSTANT HEAD =           0.0000         CONSTANT HEAD =           0.0000
               WELLS =           0.0000                 WELLS =           0.0000
            RECHARGE =   355656000.0000              RECHARGE =       48720.0000

            TOTAL IN =   355656000.5582              TOTAL IN =       48720.0001

          OUT:                                     OUT:
          ----                                     ----
             STORAGE =       52662.2447               STORAGE =           7.2140
       CONSTANT HEAD =   263913442.4808         CONSTANT HEAD =       36152.5264
               WELLS =    88899400.0000                 WELLS =       12178.0000
            RECHARGE =           0.0000              RECHARGE =           0.0000

           TOTAL OUT =   352865504.7255             TOTAL OUT =       48337.7404

            IN - OUT =     2790495.8327              IN - OUT =         382.2597

 PERCENT DISCREPANCY =           0.79     PERCENT DISCREPANCY =           0.79



0


          TIME SUMMARY AT END OF TRANSPORT STEP  292 IN TIME STEP    1 IN STRESS PERIOD   1
                    SECONDS     MINUTES      HOURS       DAYS        YEARS
                    -----------------------------------------------------------
  TRANS STEP LENGTH 2.16000E+06  36000.      600.00      25.000     6.84463E-02
   TIME STEP LENGTH 6.30720E+08 1.05120E+07 1.75200E+05  7300.0      19.986    
 STRESS PERIOD TIME 6.30720E+08 1.05120E+07 1.75200E+05  7300.0      19.986    
         TOTAL TIME 6.30720E+08 1.05120E+07 1.75200E+05  7300.0      19.986    
1
