                                  SEAWAT Version 4
      U.S. GEOLOGICAL SURVEY MODULAR FINITE-DIFFERENCE GROUND-WATER FLOW MODEL
                           VERSION 4.00.03 09/21/2009


 This model run produced both GLOBAL and LIST files.  This is the LIST file.

  ----- 
 | M T | Conversion from Groundwater Vistas                                              
 | 3 D | MT3D Model                                                                      
  ----- 
 THE TRANSPORT MODEL CONSISTS OF    23 LAYER(S)    1 ROW(S)  100 COLUMN(S)
 NUMBER OF STRESS PERIOD(S) FOR TRANSPORT SIMULATION =    1
 NUMBER OF ALL COMPONENTS INCLUDED IN SIMULATION =    2
 NUMBER OF MOBILE COMPONENTS INCLUDED IN SIMULATION =    2
 UNIT FOR TIME IS D   ;  UNIT FOR LENGTH IS M   ;  UNIT FOR MASS IS KG  
 OPTIONAL PACKAGES INCLUDED IN CURRENT SIMULATION:
  o ADV   ON UNIT 82
  o DSP   ON UNIT 83
  o SSM   ON UNIT 84
  o RCT   ON UNIT 85
  o GCG   ON UNIT 86


 VDF -- VARIABLE DENSITY FLOW, VERSION 1, 2/13/2004
         INPUT READ FROM UNIT 80

 COUPLING BETWEEN FLOW AND TRANSPORT IS EXPLICIT
 VARIABLE-DENSITY WATER-TABLE CORRECTIONS NOT ADDED
 MT3DMS SPECIES USED IN EQUATION OF STATE FOR FLUID DENSITY:          1
 AN UPSTREAM-WEIGHTED ALGORITHM IS USED TO CALCULATE FLUID DENSITY TERMS THAT CONSERVE MASS
  1000.     REFERENCE DENSITY
 0.7000     DENSITY SLOPE FOR EQUATION OF STATE
 DENSITY EQUATION OF STATE
 RHO =     1000.00    
  + 0.7000     * ( CONC(   1) -  0.000     )



 FIRSTDT SPECIFIED BY USER IN THE VDF FILE IS:   0.1000000E-02
 BTN5 -- BASIC TRANSPORT PACKAGE, VERSION 5, OCTOBER 2006, INPUT READ FROM UNIT 81
      48602 ELEMENTS OF THE  X ARRAY USED BY THE BTN PACKAGE
       4623 ELEMENTS OF THE IX ARRAY USED BY THE BTN PACKAGE

 FLOW MODEL IS TRANSIENT

 ADV5 -- ADVECTION PACKAGE, VERSION 5, FEBRUARY 2005, INPUT READ FROM UNIT 82
 ADVECTION IS SOLVED WITH THE UPSTREAM FINITE DIFFERENCE SCHEME
 COURANT NUMBER ALLOWED IN SOLVING THE ADVECTION TERM = 0.750    
          0 ELEMENTS OF THE  X ARRAY USED BY THE ADV PACKAGE
          0 ELEMENTS OF THE IX ARRAY USED BY THE ADV PACKAGE

 DSP5 -- DISPERSION PACKAGE, VERSION 5, OCTOBER 2006, INPUT READ FROM UNIT 83
      34546 ELEMENTS OF THE  X ARRAY USED BY THE DSP PACKAGE
          0 ELEMENTS OF THE IX ARRAY USED BY THE DSP PACKAGE

 SSM5 -- SINK & SOURCE MIXING PACKAGE, VERSION 5, OCTOBER 2006, INPUT READ FROM UNIT 84
 HEADER LINE OF THE SSM PACKAGE INPUT FILE:
  T F T F F F                                                                                                                                                                                            
 MAJOR STRESS COMPONENTS PRESENT IN THE FLOW MODEL:
  o WELL
  o RECHARGE
 MAXIMUM NUMBER OF POINT SINKS/SOURCES =      37
        818 ELEMENTS OF THE  X ARRAY USED BY THE SSM PACKAGE
        100 ELEMENTS OF THE IX ARRAY BY THE SSM PACKAGE

 RCT5 -- CHEMICAL REACTION PACKAGE, VERSION 5, FEBRUARY 2005, INPUT READ FROM UNIT 85
 NO SORPTION [OR DUAL-DOMAIN MODEL] IS SIMULATED
 ZEROTH-ORDER DECAY OR PRODUCTION IS SIMULATED
 REACTION COEFFICIENTS ASSIGNED CELL-BY-CELL
 INITIAL SORBED/IMMOBILE PHASE CONCENTRATION ASSIGNED BY DEFAULT
       9200 ELEMENTS OF THE  X ARRAY USED BY THE RCT PACKAGE
          0 ELEMENTS OF THE IX ARRAY USED BY THE RCT PACKAGE

 GCG5 -- GENERALIZED CONJUGATE GRADIENT SOLVER PACKAGE, VERSION 5, FEBRUARY 2005 INPUT READ FROM UNIT 86
 MAXIMUM OF    1 OUTER ITERATIONS
        AND   50 INNER ITERATIONS ALLOWED FOR CLOSURE
 THE PRECONDITIONING TYPE SELECTED IS SSOR.
 DISPERSION CROSS TERMS LUMPED INTO RIGHT-HAND-SIDE
      34550 ELEMENTS OF THE  X ARRAY USED BY THE GCG PACKAGE
        150 ELEMENTS OF THE IX ARRAY USED BY THE GCG PACKAGE

 
 # MODFLOW2000 Basic Package                                                     
 #MODFLOW Data Set Created by Groundwater Vistas                                 
 #
   23 LAYERS         1 ROWS       100 COLUMNS
    1 STRESS PERIOD(S) IN SIMULATION

 BAS6 -- BASIC PACKAGE, VERSION 6, 1/11/2000 INPUT READ FROM UNIT    1
        115 ELEMENTS IN IR ARRAY ARE USED BY BAS

 WEL6 -- WELL PACKAGE, VERSION 6, 1/11/2000 INPUT READ FROM UNIT   12
 # MODFLOW2000 Well Package
     0 Named Parameters         0 List entries
 MAXIMUM OF      7 ACTIVE WELLS AT ONE TIME
 CELL-BY-CELL FLOWS WILL BE SAVED ON UNIT   54
         28 ELEMENTS IN RX ARRAY ARE USED BY WEL

 RCH6 -- RECHARGE PACKAGE, VERSION 6, 1/11/2000 INPUT READ FROM UNIT   18
 # MODFLOW2000 Recharge Package
 No named parameters
 OPTION 3 -- RECHARGE TO HIGHEST ACTIVE NODE IN EACH VERTICAL COLUMN
 CELL-BY-CELL FLOWS WILL BE SAVED ON UNIT   51
        100 ELEMENTS IN RX ARRAY ARE USED BY RCH
        100 ELEMENTS IN IR ARRAY ARE USED BY RCH

        128  ELEMENTS OF RX ARRAY USED OUT OF        128
          0  ELEMENTS OF RZ ARRAY USED OUT OF          1
        215  ELEMENTS OF IR ARRAY USED OUT OF        215
1
 # MODFLOW2000 Basic Package                                                     
 #MODFLOW Data Set Created by Groundwater Vistas                                 



                     BOUNDARY ARRAY FOR LAYER   1
 READING ON UNIT    1 WITH FORMAT: (25I3)              



                     BOUNDARY ARRAY FOR LAYER   2
 READING ON UNIT    1 WITH FORMAT: (25I3)              



                     BOUNDARY ARRAY FOR LAYER   3
 READING ON UNIT    1 WITH FORMAT: (25I3)              



                     BOUNDARY ARRAY FOR LAYER   4
 READING ON UNIT    1 WITH FORMAT: (25I3)              



                     BOUNDARY ARRAY FOR LAYER   5
 READING ON UNIT    1 WITH FORMAT: (25I3)              



                     BOUNDARY ARRAY FOR LAYER   6
 READING ON UNIT    1 WITH FORMAT: (25I3)              



                     BOUNDARY ARRAY FOR LAYER   7
 READING ON UNIT    1 WITH FORMAT: (25I3)              



                     BOUNDARY ARRAY FOR LAYER   8
 READING ON UNIT    1 WITH FORMAT: (25I3)              



                     BOUNDARY ARRAY FOR LAYER   9
 READING ON UNIT    1 WITH FORMAT: (25I3)              



                     BOUNDARY ARRAY FOR LAYER  10
 READING ON UNIT    1 WITH FORMAT: (25I3)              



                     BOUNDARY ARRAY FOR LAYER  11
 READING ON UNIT    1 WITH FORMAT: (25I3)              



                     BOUNDARY ARRAY FOR LAYER  12
 READING ON UNIT    1 WITH FORMAT: (25I3)              



                     BOUNDARY ARRAY FOR LAYER  13
 READING ON UNIT    1 WITH FORMAT: (25I3)              



                     BOUNDARY ARRAY FOR LAYER  14
 READING ON UNIT    1 WITH FORMAT: (25I3)              



                     BOUNDARY ARRAY FOR LAYER  15
 READING ON UNIT    1 WITH FORMAT: (25I3)              



                     BOUNDARY ARRAY FOR LAYER  16
 READING ON UNIT    1 WITH FORMAT: (25I3)              



                     BOUNDARY ARRAY FOR LAYER  17
 READING ON UNIT    1 WITH FORMAT: (25I3)              



                     BOUNDARY ARRAY FOR LAYER  18
 READING ON UNIT    1 WITH FORMAT: (25I3)              



                     BOUNDARY ARRAY FOR LAYER  19
 READING ON UNIT    1 WITH FORMAT: (25I3)              



                     BOUNDARY ARRAY FOR LAYER  20
 READING ON UNIT    1 WITH FORMAT: (25I3)              



                     BOUNDARY ARRAY FOR LAYER  21
 READING ON UNIT    1 WITH FORMAT: (25I3)              



                     BOUNDARY ARRAY FOR LAYER  22
 READING ON UNIT    1 WITH FORMAT: (25I3)              



                     BOUNDARY ARRAY FOR LAYER  23
 READING ON UNIT    1 WITH FORMAT: (25I3)              

 AQUIFER HEAD WILL BE SET TO  999.00     AT ALL NO-FLOW NODES (IBOUND=0).



                       INITIAL HEAD FOR LAYER   1
 READING BINARY ON UNIT   13



                       INITIAL HEAD FOR LAYER   2
 READING BINARY ON UNIT   13



                       INITIAL HEAD FOR LAYER   3
 READING BINARY ON UNIT   13



                       INITIAL HEAD FOR LAYER   4
 READING BINARY ON UNIT   13



                       INITIAL HEAD FOR LAYER   5
 READING BINARY ON UNIT   13



                       INITIAL HEAD FOR LAYER   6
 READING BINARY ON UNIT   13



                       INITIAL HEAD FOR LAYER   7
 READING BINARY ON UNIT   13



                       INITIAL HEAD FOR LAYER   8
 READING BINARY ON UNIT   13



                       INITIAL HEAD FOR LAYER   9
 READING BINARY ON UNIT   13



                       INITIAL HEAD FOR LAYER  10
 READING BINARY ON UNIT   13



                       INITIAL HEAD FOR LAYER  11
 READING BINARY ON UNIT   13



                       INITIAL HEAD FOR LAYER  12
 READING BINARY ON UNIT   13



                       INITIAL HEAD FOR LAYER  13
 READING BINARY ON UNIT   13



                       INITIAL HEAD FOR LAYER  14
 READING BINARY ON UNIT   13



                       INITIAL HEAD FOR LAYER  15
 READING BINARY ON UNIT   13



                       INITIAL HEAD FOR LAYER  16
 READING BINARY ON UNIT   13



                       INITIAL HEAD FOR LAYER  17
 READING BINARY ON UNIT   13



                       INITIAL HEAD FOR LAYER  18
 READING BINARY ON UNIT   13



                       INITIAL HEAD FOR LAYER  19
 READING BINARY ON UNIT   13



                       INITIAL HEAD FOR LAYER  20
 READING BINARY ON UNIT   13



                       INITIAL HEAD FOR LAYER  21
 READING BINARY ON UNIT   13



                       INITIAL HEAD FOR LAYER  22
 READING BINARY ON UNIT   13



                       INITIAL HEAD FOR LAYER  23
 READING BINARY ON UNIT   13

 OUTPUT CONTROL IS SPECIFIED EVERY TIME STEP
 HEAD PRINT FORMAT CODE IS   0    DRAWDOWN PRINT FORMAT CODE IS   0
 HEADS WILL BE SAVED ON UNIT   30    DRAWDOWNS WILL BE SAVED ON UNIT    0
 LAYER NUMBER  AQUIFER TYPE
 ------------  ------------
       1            0
       2            0
       3            0
       4            0
       5            0
       6            0
       7            0
       8            0
       9            0
      10            0
      11            0
      12            0
      13            0
      14            0
      15            0
      16            0
      17            0
      18            0
      19            0
      20            0
      21            0
      22            0
      23            0
                                       WIDTH ALONG ROWS (DELR)  =   100.0000    
                                       WIDTH ALONG COLS (DELC)  =   100.0000    
                                       TOP ELEV. OF 1ST LAYER   =   2.500000    
                                       CELL THICKNESS (DZ)      =   5.000000     FOR LAYER  1
                                       CELL THICKNESS (DZ)      =   5.000000     FOR LAYER  2
                                       CELL THICKNESS (DZ)      =   5.000000     FOR LAYER  3
                                       CELL THICKNESS (DZ)      =   5.000000     FOR LAYER  4
                                       CELL THICKNESS (DZ)      =   5.000000     FOR LAYER  5
                                       CELL THICKNESS (DZ)      =   5.000000     FOR LAYER  6
                                       CELL THICKNESS (DZ)      =   5.000000     FOR LAYER  7
                                       CELL THICKNESS (DZ)      =   5.000000     FOR LAYER  8
                                       CELL THICKNESS (DZ)      =   5.000000     FOR LAYER  9
                                       CELL THICKNESS (DZ)      =   5.000000     FOR LAYER 10
                                       CELL THICKNESS (DZ)      =   5.000000     FOR LAYER 11
                                       CELL THICKNESS (DZ)      =   5.000000     FOR LAYER 12
                                       CELL THICKNESS (DZ)      =   5.000000     FOR LAYER 13
                                       CELL THICKNESS (DZ)      =   5.000000     FOR LAYER 14
                                       CELL THICKNESS (DZ)      =   5.000000     FOR LAYER 15
                                       CELL THICKNESS (DZ)      =   5.000000     FOR LAYER 16
                                       CELL THICKNESS (DZ)      =   5.000000     FOR LAYER 17
                                       CELL THICKNESS (DZ)      =   5.000000     FOR LAYER 18
                                       CELL THICKNESS (DZ)      =   5.000000     FOR LAYER 19
                                       CELL THICKNESS (DZ)      =   5.000000     FOR LAYER 20
                                       CELL THICKNESS (DZ)      =   5.000000     FOR LAYER 21
                                       CELL THICKNESS (DZ)      =   5.000000     FOR LAYER 22
                                       CELL THICKNESS (DZ)      =   5.000000     FOR LAYER 23
                                       POROSITY                 =  0.2000000     FOR LAYER  1
                                       POROSITY                 =  0.2000000     FOR LAYER  2
                                       POROSITY                 =  0.2000000     FOR LAYER  3
                                       POROSITY                 =  0.2000000     FOR LAYER  4
                                       POROSITY                 =  0.2000000     FOR LAYER  5
                                       POROSITY                 =  0.2000000     FOR LAYER  6
                                       POROSITY                 =  0.2000000     FOR LAYER  7
                                       POROSITY                 =  0.2000000     FOR LAYER  8
                                       POROSITY                 =  0.2000000     FOR LAYER  9
                                       POROSITY                 =  0.2000000     FOR LAYER 10
                                       POROSITY                 =  0.2000000     FOR LAYER 11
                                       POROSITY                 =  0.2000000     FOR LAYER 12
                                       POROSITY                 =  0.2000000     FOR LAYER 13
                                       POROSITY                 =  0.2000000     FOR LAYER 14
                                       POROSITY                 =  0.2000000     FOR LAYER 15
                                       POROSITY                 =  0.2000000     FOR LAYER 16
                                       POROSITY                 =  0.2000000     FOR LAYER 17
                                       POROSITY                 =  0.2000000     FOR LAYER 18
                                       POROSITY                 =  0.2000000     FOR LAYER 19
                                       POROSITY                 =  0.2000000     FOR LAYER 20
                                       POROSITY                 =  0.2000000     FOR LAYER 21
                                       POROSITY                 =  0.2000000     FOR LAYER 22
                                       POROSITY                 =  0.2000000     FOR LAYER 23

                     CONCN. BOUNDARY ARRAY    FOR LAYER  1 READ ON UNIT 81 USING FORMAT: "(25I3)              "
                     ------------------------------------------------------------------------------------------

                     CONCN. BOUNDARY ARRAY    FOR LAYER  2 READ ON UNIT 81 USING FORMAT: "(25I3)              "
                     ------------------------------------------------------------------------------------------

                     CONCN. BOUNDARY ARRAY    FOR LAYER  3 READ ON UNIT 81 USING FORMAT: "(25I3)              "
                     ------------------------------------------------------------------------------------------

                     CONCN. BOUNDARY ARRAY    FOR LAYER  4 READ ON UNIT 81 USING FORMAT: "(25I3)              "
                     ------------------------------------------------------------------------------------------

                     CONCN. BOUNDARY ARRAY    FOR LAYER  5 READ ON UNIT 81 USING FORMAT: "(25I3)              "
                     ------------------------------------------------------------------------------------------

                     CONCN. BOUNDARY ARRAY    FOR LAYER  6 READ ON UNIT 81 USING FORMAT: "(25I3)              "
                     ------------------------------------------------------------------------------------------

                     CONCN. BOUNDARY ARRAY    FOR LAYER  7 READ ON UNIT 81 USING FORMAT: "(25I3)              "
                     ------------------------------------------------------------------------------------------

                     CONCN. BOUNDARY ARRAY    FOR LAYER  8 READ ON UNIT 81 USING FORMAT: "(25I3)              "
                     ------------------------------------------------------------------------------------------

                     CONCN. BOUNDARY ARRAY    FOR LAYER  9 READ ON UNIT 81 USING FORMAT: "(25I3)              "
                     ------------------------------------------------------------------------------------------

                     CONCN. BOUNDARY ARRAY    FOR LAYER 10 READ ON UNIT 81 USING FORMAT: "(25I3)              "
                     ------------------------------------------------------------------------------------------

                     CONCN. BOUNDARY ARRAY    FOR LAYER 11 READ ON UNIT 81 USING FORMAT: "(25I3)              "
                     ------------------------------------------------------------------------------------------

                     CONCN. BOUNDARY ARRAY    FOR LAYER 12 READ ON UNIT 81 USING FORMAT: "(25I3)              "
                     ------------------------------------------------------------------------------------------

                     CONCN. BOUNDARY ARRAY    FOR LAYER 13 READ ON UNIT 81 USING FORMAT: "(25I3)              "
                     ------------------------------------------------------------------------------------------

                     CONCN. BOUNDARY ARRAY    FOR LAYER 14 READ ON UNIT 81 USING FORMAT: "(25I3)              "
                     ------------------------------------------------------------------------------------------

                     CONCN. BOUNDARY ARRAY    FOR LAYER 15 READ ON UNIT 81 USING FORMAT: "(25I3)              "
                     ------------------------------------------------------------------------------------------

                     CONCN. BOUNDARY ARRAY    FOR LAYER 16 READ ON UNIT 81 USING FORMAT: "(25I3)              "
                     ------------------------------------------------------------------------------------------

                     CONCN. BOUNDARY ARRAY    FOR LAYER 17 READ ON UNIT 81 USING FORMAT: "(25I3)              "
                     ------------------------------------------------------------------------------------------

                     CONCN. BOUNDARY ARRAY    FOR LAYER 18 READ ON UNIT 81 USING FORMAT: "(25I3)              "
                     ------------------------------------------------------------------------------------------

                     CONCN. BOUNDARY ARRAY    FOR LAYER 19 READ ON UNIT 81 USING FORMAT: "(25I3)              "
                     ------------------------------------------------------------------------------------------

                     CONCN. BOUNDARY ARRAY    FOR LAYER 20 READ ON UNIT 81 USING FORMAT: "(25I3)              "
                     ------------------------------------------------------------------------------------------

                     CONCN. BOUNDARY ARRAY    FOR LAYER 21 READ ON UNIT 81 USING FORMAT: "(25I3)              "
                     ------------------------------------------------------------------------------------------

                     CONCN. BOUNDARY ARRAY    FOR LAYER 22 READ ON UNIT 81 USING FORMAT: "(25I3)              "
                     ------------------------------------------------------------------------------------------

                     CONCN. BOUNDARY ARRAY    FOR LAYER 23 READ ON UNIT 81 USING FORMAT: "(25I3)              "
                     ------------------------------------------------------------------------------------------

                     INITIAL CONC.: COMP.  01 FOR LAYER  1 READ ON UNIT 81 USING FORMAT: "(10E12.4)           "
                     ------------------------------------------------------------------------------------------

                     INITIAL CONC.: COMP.  01 FOR LAYER  2 READ ON UNIT 81 USING FORMAT: "(10E12.4)           "
                     ------------------------------------------------------------------------------------------

                     INITIAL CONC.: COMP.  01 FOR LAYER  3 READ ON UNIT 81 USING FORMAT: "(10E12.4)           "
                     ------------------------------------------------------------------------------------------

                     INITIAL CONC.: COMP.  01 FOR LAYER  4 READ ON UNIT 81 USING FORMAT: "(10E12.4)           "
                     ------------------------------------------------------------------------------------------

                     INITIAL CONC.: COMP.  01 FOR LAYER  5 READ ON UNIT 81 USING FORMAT: "(10E12.4)           "
                     ------------------------------------------------------------------------------------------

                     INITIAL CONC.: COMP.  01 FOR LAYER  6 READ ON UNIT 81 USING FORMAT: "(10E12.4)           "
                     ------------------------------------------------------------------------------------------

                     INITIAL CONC.: COMP.  01 FOR LAYER  7 READ ON UNIT 81 USING FORMAT: "(10E12.4)           "
                     ------------------------------------------------------------------------------------------

                     INITIAL CONC.: COMP.  01 FOR LAYER  8 READ ON UNIT 81 USING FORMAT: "(10E12.4)           "
                     ------------------------------------------------------------------------------------------

                     INITIAL CONC.: COMP.  01 FOR LAYER  9 READ ON UNIT 81 USING FORMAT: "(10E12.4)           "
                     ------------------------------------------------------------------------------------------

                     INITIAL CONC.: COMP.  01 FOR LAYER 10 READ ON UNIT 81 USING FORMAT: "(10E12.4)           "
                     ------------------------------------------------------------------------------------------

                     INITIAL CONC.: COMP.  01 FOR LAYER 11 READ ON UNIT 81 USING FORMAT: "(10E12.4)           "
                     ------------------------------------------------------------------------------------------

                     INITIAL CONC.: COMP.  01 FOR LAYER 12 READ ON UNIT 81 USING FORMAT: "(10E12.4)           "
                     ------------------------------------------------------------------------------------------

                     INITIAL CONC.: COMP.  01 FOR LAYER 13 READ ON UNIT 81 USING FORMAT: "(10E12.4)           "
                     ------------------------------------------------------------------------------------------

                     INITIAL CONC.: COMP.  01 FOR LAYER 14 READ ON UNIT 81 USING FORMAT: "(10E12.4)           "
                     ------------------------------------------------------------------------------------------

                     INITIAL CONC.: COMP.  01 FOR LAYER 15 READ ON UNIT 81 USING FORMAT: "(10E12.4)           "
                     ------------------------------------------------------------------------------------------

                     INITIAL CONC.: COMP.  01 FOR LAYER 16 READ ON UNIT 81 USING FORMAT: "(10E12.4)           "
                     ------------------------------------------------------------------------------------------

                     INITIAL CONC.: COMP.  01 FOR LAYER 17 READ ON UNIT 81 USING FORMAT: "(10E12.4)           "
                     ------------------------------------------------------------------------------------------

                     INITIAL CONC.: COMP.  01 FOR LAYER 18 READ ON UNIT 81 USING FORMAT: "(10E12.4)           "
                     ------------------------------------------------------------------------------------------

                     INITIAL CONC.: COMP.  01 FOR LAYER 19 READ ON UNIT 81 USING FORMAT: "(10E12.4)           "
                     ------------------------------------------------------------------------------------------

                     INITIAL CONC.: COMP.  01 FOR LAYER 20 READ ON UNIT 81 USING FORMAT: "(10E12.4)           "
                     ------------------------------------------------------------------------------------------

                     INITIAL CONC.: COMP.  01 FOR LAYER 21 READ ON UNIT 81 USING FORMAT: "(10E12.4)           "
                     ------------------------------------------------------------------------------------------

                     INITIAL CONC.: COMP.  01 FOR LAYER 22 READ ON UNIT 81 USING FORMAT: "(10E12.4)           "
                     ------------------------------------------------------------------------------------------

                     INITIAL CONC.: COMP.  01 FOR LAYER 23 READ ON UNIT 81 USING FORMAT: "(10E12.4)           "
                     ------------------------------------------------------------------------------------------
                                       INITIAL CONC.: COMP.  02 =   0.000000     FOR LAYER  1
                                       INITIAL CONC.: COMP.  02 =   0.000000     FOR LAYER  2
                                       INITIAL CONC.: COMP.  02 =   0.000000     FOR LAYER  3
                                       INITIAL CONC.: COMP.  02 =   0.000000     FOR LAYER  4
                                       INITIAL CONC.: COMP.  02 =   0.000000     FOR LAYER  5
                                       INITIAL CONC.: COMP.  02 =   0.000000     FOR LAYER  6
                                       INITIAL CONC.: COMP.  02 =   0.000000     FOR LAYER  7
                                       INITIAL CONC.: COMP.  02 =   0.000000     FOR LAYER  8
                                       INITIAL CONC.: COMP.  02 =   0.000000     FOR LAYER  9
                                       INITIAL CONC.: COMP.  02 =   0.000000     FOR LAYER 10
                                       INITIAL CONC.: COMP.  02 =   0.000000     FOR LAYER 11
                                       INITIAL CONC.: COMP.  02 =   0.000000     FOR LAYER 12
                                       INITIAL CONC.: COMP.  02 =   0.000000     FOR LAYER 13
                                       INITIAL CONC.: COMP.  02 =   0.000000     FOR LAYER 14
                                       INITIAL CONC.: COMP.  02 =   0.000000     FOR LAYER 15
                                       INITIAL CONC.: COMP.  02 =   0.000000     FOR LAYER 16
                                       INITIAL CONC.: COMP.  02 =   0.000000     FOR LAYER 17
                                       INITIAL CONC.: COMP.  02 =   0.000000     FOR LAYER 18
                                       INITIAL CONC.: COMP.  02 =   0.000000     FOR LAYER 19
                                       INITIAL CONC.: COMP.  02 =   0.000000     FOR LAYER 20
                                       INITIAL CONC.: COMP.  02 =   0.000000     FOR LAYER 21
                                       INITIAL CONC.: COMP.  02 =   0.000000     FOR LAYER 22
                                       INITIAL CONC.: COMP.  02 =   0.000000     FOR LAYER 23

 VALUE INDICATING INACTIVE CONCENTRATION CELLS =   -1.000000    
 MINIMUM SATURATED THICKNESS [THKMIN] ALLOWED =  0.0500 OF TOTAL CELL THICKNESS


 OUTPUT CONTROL OPTIONS
 ----------------------

 DO NOT PRINT CELL CONCENTRATION
 DO NOT PRINT PARTICLE NUMBER IN EACH CELL
 DO NOT PRINT RETARDATION FACTOR
 DO NOT PRINT DISPERSION COEFFICIENT
 SAVE DISSOLVED PHASE CONCENTRATIONS IN UNFORMATTED FILES [MT3Dnnn.UCN]
  FOR EACH SPECIES ON UNITS 201 AND ABOVE

 SIMULATION RESULTS ARE SAVED EVERY  10 TRANSPORT STEP(S)

 NUMBER OF OBSERVATION POINTS =    7
 SAVE CONCENTRATIONS AT OBSERVATION POINTS IN FILES [MT3Dnnn.OBS]
  FOR EACH SPECIES ON UNITS 401 AND ABOVE, EVERY  1 TRANSPORT STEPS
 LOCATION OF OBSERVATION POINTS
 ..............................
 NUMBER  LAYER   ROW   COLUMN
   1       12      1     74
   2       17      1     74
   3        4      1     55
   4       22      1     93
   5       19      1     48
   6       13      1     61
   7        5      1     27

 SAVE ONE-LINE SUMMARY OF MASS BUDGETS IN FILES [MT3Dnnn.MAS]
  FOR EACH SPECIES ON UNITS 601 AND ABOVE, EVERY  1 TRANSPORT STEPS

 MAXIMUM LENGTH ALONG THE X (J) AXIS =   10000.00    
 MAXIMUM LENGTH ALONG THE Y (I) AXIS =   100.0000    
 MAXIMUM LENGTH ALONG THE Z (K) AXIS =   115.0000    


 ADVECTION SOLUTION OPTIONS
 --------------------------

 ADVECTION IS SOLVED WITH THE UPSTREAM FINITE DIFFERENCE SCHEME
 COURANT NUMBER ALLOWED IN SOLVING THE ADVECTION TERM = 0.750    


 DISPERSION INPUT PARAMETERS
 ---------------------------

                                       LONG. DISPERSIVITY (AL)  =   10.00000     FOR LAYER  1
                                       LONG. DISPERSIVITY (AL)  =   10.00000     FOR LAYER  2
                                       LONG. DISPERSIVITY (AL)  =   10.00000     FOR LAYER  3
                                       LONG. DISPERSIVITY (AL)  =   10.00000     FOR LAYER  4
                                       LONG. DISPERSIVITY (AL)  =   10.00000     FOR LAYER  5
                                       LONG. DISPERSIVITY (AL)  =   10.00000     FOR LAYER  6
                                       LONG. DISPERSIVITY (AL)  =   10.00000     FOR LAYER  7
                                       LONG. DISPERSIVITY (AL)  =   10.00000     FOR LAYER  8
                                       LONG. DISPERSIVITY (AL)  =   10.00000     FOR LAYER  9
                                       LONG. DISPERSIVITY (AL)  =   10.00000     FOR LAYER 10
                                       LONG. DISPERSIVITY (AL)  =   10.00000     FOR LAYER 11
                                       LONG. DISPERSIVITY (AL)  =   10.00000     FOR LAYER 12
                                       LONG. DISPERSIVITY (AL)  =   10.00000     FOR LAYER 13
                                       LONG. DISPERSIVITY (AL)  =   10.00000     FOR LAYER 14
                                       LONG. DISPERSIVITY (AL)  =   10.00000     FOR LAYER 15
                                       LONG. DISPERSIVITY (AL)  =   10.00000     FOR LAYER 16
                                       LONG. DISPERSIVITY (AL)  =   10.00000     FOR LAYER 17
                                       LONG. DISPERSIVITY (AL)  =   10.00000     FOR LAYER 18
                                       LONG. DISPERSIVITY (AL)  =   10.00000     FOR LAYER 19
                                       LONG. DISPERSIVITY (AL)  =   10.00000     FOR LAYER 20
                                       LONG. DISPERSIVITY (AL)  =   10.00000     FOR LAYER 21
                                       LONG. DISPERSIVITY (AL)  =   10.00000     FOR LAYER 22
                                       LONG. DISPERSIVITY (AL)  =   10.00000     FOR LAYER 23

                           H. TRANS./LONG. DISP.    READ ON UNIT 83 USING FORMAT: "(10E12.4)           "
                           -----------------------------------------------------------------------------

                           V. TRANS./LONG. DISP.    READ ON UNIT 83 USING FORMAT: "(10E12.4)           "
                           -----------------------------------------------------------------------------

                           DIFFUSION COEFFICIENT    READ ON UNIT 83 USING FORMAT: "(10E12.4)           "
                           -----------------------------------------------------------------------------


 SORPTION AND 1ST/0TH ORDER REACTION PARAMETERS
 ----------------------------------------------

                                       SOLUTE RXN RATE: COMP 01 =   0.000000     FOR LAYER  1
                                       SOLUTE RXN RATE: COMP 01 =   0.000000     FOR LAYER  2
                                       SOLUTE RXN RATE: COMP 01 =   0.000000     FOR LAYER  3
                                       SOLUTE RXN RATE: COMP 01 =   0.000000     FOR LAYER  4
                                       SOLUTE RXN RATE: COMP 01 =   0.000000     FOR LAYER  5
                                       SOLUTE RXN RATE: COMP 01 =   0.000000     FOR LAYER  6
                                       SOLUTE RXN RATE: COMP 01 =   0.000000     FOR LAYER  7
                                       SOLUTE RXN RATE: COMP 01 =   0.000000     FOR LAYER  8
                                       SOLUTE RXN RATE: COMP 01 =   0.000000     FOR LAYER  9
                                       SOLUTE RXN RATE: COMP 01 =   0.000000     FOR LAYER 10
                                       SOLUTE RXN RATE: COMP 01 =   0.000000     FOR LAYER 11
                                       SOLUTE RXN RATE: COMP 01 =   0.000000     FOR LAYER 12
                                       SOLUTE RXN RATE: COMP 01 =   0.000000     FOR LAYER 13
                                       SOLUTE RXN RATE: COMP 01 =   0.000000     FOR LAYER 14
                                       SOLUTE RXN RATE: COMP 01 =   0.000000     FOR LAYER 15
                                       SOLUTE RXN RATE: COMP 01 =   0.000000     FOR LAYER 16
                                       SOLUTE RXN RATE: COMP 01 =   0.000000     FOR LAYER 17
                                       SOLUTE RXN RATE: COMP 01 =   0.000000     FOR LAYER 18
                                       SOLUTE RXN RATE: COMP 01 =   0.000000     FOR LAYER 19
                                       SOLUTE RXN RATE: COMP 01 =   0.000000     FOR LAYER 20
                                       SOLUTE RXN RATE: COMP 01 =   0.000000     FOR LAYER 21
                                       SOLUTE RXN RATE: COMP 01 =   0.000000     FOR LAYER 22
                                       SOLUTE RXN RATE: COMP 01 =   0.000000     FOR LAYER 23
                                       SOLUTE RXN RATE: COMP 02 =  -1.000000     FOR LAYER  1
                                       SOLUTE RXN RATE: COMP 02 =  -1.000000     FOR LAYER  2
                                       SOLUTE RXN RATE: COMP 02 =  -1.000000     FOR LAYER  3
                                       SOLUTE RXN RATE: COMP 02 =  -1.000000     FOR LAYER  4
                                       SOLUTE RXN RATE: COMP 02 =  -1.000000     FOR LAYER  5
                                       SOLUTE RXN RATE: COMP 02 =  -1.000000     FOR LAYER  6
                                       SOLUTE RXN RATE: COMP 02 =  -1.000000     FOR LAYER  7
                                       SOLUTE RXN RATE: COMP 02 =  -1.000000     FOR LAYER  8
                                       SOLUTE RXN RATE: COMP 02 =  -1.000000     FOR LAYER  9
                                       SOLUTE RXN RATE: COMP 02 =  -1.000000     FOR LAYER 10
                                       SOLUTE RXN RATE: COMP 02 =  -1.000000     FOR LAYER 11
                                       SOLUTE RXN RATE: COMP 02 =  -1.000000     FOR LAYER 12
                                       SOLUTE RXN RATE: COMP 02 =  -1.000000     FOR LAYER 13
                                       SOLUTE RXN RATE: COMP 02 =  -1.000000     FOR LAYER 14
                                       SOLUTE RXN RATE: COMP 02 =  -1.000000     FOR LAYER 15
                                       SOLUTE RXN RATE: COMP 02 =  -1.000000     FOR LAYER 16
                                       SOLUTE RXN RATE: COMP 02 =  -1.000000     FOR LAYER 17
                                       SOLUTE RXN RATE: COMP 02 =  -1.000000     FOR LAYER 18
                                       SOLUTE RXN RATE: COMP 02 =  -1.000000     FOR LAYER 19
                                       SOLUTE RXN RATE: COMP 02 =  -1.000000     FOR LAYER 20
                                       SOLUTE RXN RATE: COMP 02 =  -1.000000     FOR LAYER 21
                                       SOLUTE RXN RATE: COMP 02 =  -1.000000     FOR LAYER 22
                                       SOLUTE RXN RATE: COMP 02 =  -1.000000     FOR LAYER 23
                                       SORBED RXN RATE: COMP 01 =   0.000000     FOR LAYER  1
                                       SORBED RXN RATE: COMP 01 =   0.000000     FOR LAYER  2
                                       SORBED RXN RATE: COMP 01 =   0.000000     FOR LAYER  3
                                       SORBED RXN RATE: COMP 01 =   0.000000     FOR LAYER  4
                                       SORBED RXN RATE: COMP 01 =   0.000000     FOR LAYER  5
                                       SORBED RXN RATE: COMP 01 =   0.000000     FOR LAYER  6
                                       SORBED RXN RATE: COMP 01 =   0.000000     FOR LAYER  7
                                       SORBED RXN RATE: COMP 01 =   0.000000     FOR LAYER  8
                                       SORBED RXN RATE: COMP 01 =   0.000000     FOR LAYER  9
                                       SORBED RXN RATE: COMP 01 =   0.000000     FOR LAYER 10
                                       SORBED RXN RATE: COMP 01 =   0.000000     FOR LAYER 11
                                       SORBED RXN RATE: COMP 01 =   0.000000     FOR LAYER 12
                                       SORBED RXN RATE: COMP 01 =   0.000000     FOR LAYER 13
                                       SORBED RXN RATE: COMP 01 =   0.000000     FOR LAYER 14
                                       SORBED RXN RATE: COMP 01 =   0.000000     FOR LAYER 15
                                       SORBED RXN RATE: COMP 01 =   0.000000     FOR LAYER 16
                                       SORBED RXN RATE: COMP 01 =   0.000000     FOR LAYER 17
                                       SORBED RXN RATE: COMP 01 =   0.000000     FOR LAYER 18
                                       SORBED RXN RATE: COMP 01 =   0.000000     FOR LAYER 19
                                       SORBED RXN RATE: COMP 01 =   0.000000     FOR LAYER 20
                                       SORBED RXN RATE: COMP 01 =   0.000000     FOR LAYER 21
                                       SORBED RXN RATE: COMP 01 =   0.000000     FOR LAYER 22
                                       SORBED RXN RATE: COMP 01 =   0.000000     FOR LAYER 23
                                       SORBED RXN RATE: COMP 02 =   0.000000     FOR LAYER  1
                                       SORBED RXN RATE: COMP 02 =   0.000000     FOR LAYER  2
                                       SORBED RXN RATE: COMP 02 =   0.000000     FOR LAYER  3
                                       SORBED RXN RATE: COMP 02 =   0.000000     FOR LAYER  4
                                       SORBED RXN RATE: COMP 02 =   0.000000     FOR LAYER  5
                                       SORBED RXN RATE: COMP 02 =   0.000000     FOR LAYER  6
                                       SORBED RXN RATE: COMP 02 =   0.000000     FOR LAYER  7
                                       SORBED RXN RATE: COMP 02 =   0.000000     FOR LAYER  8
                                       SORBED RXN RATE: COMP 02 =   0.000000     FOR LAYER  9
                                       SORBED RXN RATE: COMP 02 =   0.000000     FOR LAYER 10
                                       SORBED RXN RATE: COMP 02 =   0.000000     FOR LAYER 11
                                       SORBED RXN RATE: COMP 02 =   0.000000     FOR LAYER 12
                                       SORBED RXN RATE: COMP 02 =   0.000000     FOR LAYER 13
                                       SORBED RXN RATE: COMP 02 =   0.000000     FOR LAYER 14
                                       SORBED RXN RATE: COMP 02 =   0.000000     FOR LAYER 15
                                       SORBED RXN RATE: COMP 02 =   0.000000     FOR LAYER 16
                                       SORBED RXN RATE: COMP 02 =   0.000000     FOR LAYER 17
                                       SORBED RXN RATE: COMP 02 =   0.000000     FOR LAYER 18
                                       SORBED RXN RATE: COMP 02 =   0.000000     FOR LAYER 19
                                       SORBED RXN RATE: COMP 02 =   0.000000     FOR LAYER 20
                                       SORBED RXN RATE: COMP 02 =   0.000000     FOR LAYER 21
                                       SORBED RXN RATE: COMP 02 =   0.000000     FOR LAYER 22
                                       SORBED RXN RATE: COMP 02 =   0.000000     FOR LAYER 23



                                               SOLUTION BY THE GENERALIZED CONJUGATE GRADIENT METHOD
                                               -----------------------------------------------------
                                     MAXIMUM OUTER ITERATIONS ALLOWED FOR CLOSURE =        1
                                     MAXIMUM INNER ITERATIONS ALLOWED FOR CLOSURE =       50
                                                    PRECONDITIONING TYPE SELECTED =    2
                                                           ACCELERATION PARAMETER =     1.0000    
                                       CONCENTRATION CHANGE CRITERION FOR CLOSURE =    0.10000E-05
                                       GCG CONCENTRATION CHANGE PRINTOUT INTERVAL =        5


                                   ++++++++++++++++++++++++++++++++++++++++++++++++++++++++++++++
                                                       STRESS PERIOD NO.  001
                                   ++++++++++++++++++++++++++++++++++++++++++++++++++++++++++++++


 LENGTH OF CURRENT STRESS PERIOD =   45000.00    
 NUMBER OF TIME STEPS FOR CURRENT STRESS PERIOD =    1
 TIME STEP MULTIPLIER USED IN FLOW SOLUTION =   1.000000    
 USER-SPECIFIED TRANSPORT STEPSIZE =   50.00000    D   
 MAXIMUM NUMBER OF TRANSPORT STEPS ALLOWED  IN ONE FLOW TIME STEP =     99999
 MULTIPLIER FOR SUCCESSIVE TRANSPORT STEPS  [USED IN IMPLICIT SCHEMES] =     1.000
 MAXIMUM TRANSPORT STEP SIZE  [USED IN IMPLICIT SCHEMES] =   0.000000    D   
1
                            STRESS PERIOD NO.    1, LENGTH =   45000.00    
                            -----------------------------------------------

                              NUMBER OF TIME STEPS =     1

                               MULTIPLIER FOR DELT =     1.000

                            INITIAL TIME STEP SIZE =   45000.00    

 CONCENTRATION OF RECHARGE FLUXES WILL BE READ IN STRESS PERIOD  1
                                       RECH. CONC. COMP.  01    =   0.000000    
                                       RECH. CONC. COMP.  02    =   0.000000    

       NO    LAYER   ROW   COLUMN   CONCENTRATION       TYPE            COMPONENT
       1       1       1      71       35.00000         CONSTANT HEAD       1
       2      23       1     100       35.00000         CONSTANT HEAD       1
       3       2       1      72       35.00000         CONSTANT HEAD       1
       4       3       1      73       35.00000         CONSTANT HEAD       1
       5       3       1      74       35.00000         CONSTANT HEAD       1
       6       4       1      75       35.00000         CONSTANT HEAD       1
       7       5       1      76       35.00000         CONSTANT HEAD       1
       8       6       1      77       35.00000         CONSTANT HEAD       1
       9       6       1      78       35.00000         CONSTANT HEAD       1
      10       7       1      79       35.00000         CONSTANT HEAD       1
      11       8       1      80       35.00000         CONSTANT HEAD       1
      12       9       1      81       35.00000         CONSTANT HEAD       1
      13      10       1      82       35.00000         CONSTANT HEAD       1
      14      11       1      83       35.00000         CONSTANT HEAD       1
      15      11       1      84       35.00000         CONSTANT HEAD       1
      16      12       1      85       35.00000         CONSTANT HEAD       1
      17      13       1      86       35.00000         CONSTANT HEAD       1
      18      14       1      87       35.00000         CONSTANT HEAD       1
      19      15       1      88       35.00000         CONSTANT HEAD       1
      20      15       1      89       35.00000         CONSTANT HEAD       1
      21      16       1      90       35.00000         CONSTANT HEAD       1
      22      17       1      91       35.00000         CONSTANT HEAD       1
      23      18       1      92       35.00000         CONSTANT HEAD       1
      24      19       1      93       35.00000         CONSTANT HEAD       1
      25      19       1      94       35.00000         CONSTANT HEAD       1
      26      20       1      95       35.00000         CONSTANT HEAD       1
      27      21       1      96       35.00000         CONSTANT HEAD       1
      28      22       1      98       35.00000         CONSTANT HEAD       1
      29      21       1      97       35.00000         CONSTANT HEAD       1
      30      22       1      99       35.00000         CONSTANT HEAD       1

      0 WELLS



                           RECHARGE
 READING ON UNIT   18 WITH FORMAT: (10e12.4)           


                                          ================================================
                                                         FROM TIME =   0.0000     TO    45000.    

 
 SOLVING FOR HEAD 


     4 CALLS TO PCG ROUTINE FOR TIME STEP   1 IN STRESS PERIOD    1
    16 TOTAL ITERATIONS

 MAXIMUM HEAD CHANGE FOR EACH ITERATION (1 INDICATES THE FIRST INNER ITERATION):

    HEAD CHANGE    HEAD CHANGE    HEAD CHANGE    HEAD CHANGE    HEAD CHANGE 
   LAYER,ROW,COL  LAYER,ROW,COL  LAYER,ROW,COL  LAYER,ROW,COL  LAYER,ROW,COL
 ---------------------------------------------------------------------------
  1 -0.1119      0  0.4611      0 -0.4717      0 -0.5546E-01  0  0.9505E-01
   ( 20,  1, 87)  (  7,  1, 12)  (  8,  1, 12)  (  8,  1, 46)  (  9,  1, 46)
  0 -0.5238E-01  0  0.1737E-01  0  0.1645E-01  0 -0.1165E-01  0 -0.4703E-02
   ( 10,  1, 50)  ( 11,  1, 65)  ( 11,  1, 70)  ( 11,  1, 69)  ( 11,  1, 70)
  1  0.3578E-02  0  0.1074E-02  0  0.9285E-03  1 -0.1017E-02  0 -0.4155E-03
   ( 11,  1, 69)  ( 11,  1, 51)  ( 11,  1, 51)  ( 11,  1, 70)  ( 11,  1, 70)
  1  0.3779E-03
   ( 11,  1, 52)

 MAXIMUM RESIDUAL FOR EACH ITERATION (1 INDICATES THE FIRST INNER ITERATION):

    RESIDUAL       RESIDUAL       RESIDUAL       RESIDUAL       RESIDUAL    
   LAYER,ROW,COL  LAYER,ROW,COL  LAYER,ROW,COL  LAYER,ROW,COL  LAYER,ROW,COL
 ---------------------------------------------------------------------------
  1  0.2861E+08  0 -0.2511E+07  0 -0.1394E+07  0 -0.1044E+07  0 -0.6891E+06
   ( 19,  1, 89)  ( 20,  1, 89)  ( 20,  1, 89)  ( 20,  1, 89)  ( 20,  1, 89)
  0 -0.1300E+06  0 -0.1040E+06  0 -0.4631E+05  0  -9859.      0  -5775.    
   ( 20,  1, 89)  ( 20,  1, 89)  ( 20,  1, 89)  ( 20,  1, 89)  ( 19,  1, 90)
  1  -4859.      0  -4027.      0  -3189.      1  -2818.      0  -2651.    
   ( 19,  1, 90)  ( 19,  1, 90)  ( 19,  1, 90)  ( 19,  1, 90)  ( 19,  1, 90)
  1  -2509.    
   ( 19,  1, 90)


 FLOW MODEL IS TRANSIENT
 FLOW MODEL CONTAINS CONSTANT-HEAD CELLS


 MAXIMUM STEPSIZE DURING WHICH ANY PARTICLE CANNOT MOVE MORE THAN ONE CELL
 =  12.37    (WHEN MIN. R.F.=1)  AT K=  17, I=   1, J=  90

 MAXIMUM STEPSIZE WHICH MEETS STABILITY CRITERION OF THE ADVECTION TERM
 (FOR PURE FINITE-DIFFERENCE OPTION, MIXELM=0) 
 =  7.824    (WHEN MIN. R.F.=1)  AT K=  16, I=   1, J=  90


 TOTAL NUMBER OF POINT SOURCES/SINKS PRESENT IN THE FLOW MODEL =    30

 MAXIMUM STEPSIZE WHICH MEETS STABILITY CRITERION OF THE SINK & SOURCE TERM
 =  11.84    (WHEN MIN. R.F.=1)  AT K=  17, I=   1, J=  91

 MAXIMUM STEPSIZE WHICH MEETS STABILITY CRITERION OF THE DISPERSION TERM
 =  3.839    (WHEN MIN. R.F.=1)  AT K=  17, I=   1, J=  90


     1 CALLS TO GCG PACKAGE FOR TRANSPORT TIME STEP   1 IN FLOW TIME STEP   1 STRESS PERIOD   1
     8 TOTAL ITERATIONS


     1 CALLS TO GCG PACKAGE FOR TRANSPORT TIME STEP   1 IN FLOW TIME STEP   1 STRESS PERIOD   1
    14 TOTAL ITERATIONS

 HEAD/DRAWDOWN PRINTOUT FLAG = 1     TOTAL BUDGET PRINTOUT FLAG = 1
 CELL-BY-CELL FLOW TERM FLAG = 1

 OUTPUT FLAGS FOR ALL LAYERS ARE THE SAME:
   HEAD    DRAWDOWN  HEAD  DRAWDOWN
 PRINTOUT  PRINTOUT  SAVE    SAVE
 ----------------------------------
     0         0       1       0
 
 SOLVING FOR HEAD 


     2 CALLS TO PCG ROUTINE FOR TIME STEP   1 IN STRESS PERIOD    1
     8 TOTAL ITERATIONS

 MAXIMUM HEAD CHANGE FOR EACH ITERATION (1 INDICATES THE FIRST INNER ITERATION):

    HEAD CHANGE    HEAD CHANGE    HEAD CHANGE    HEAD CHANGE    HEAD CHANGE 
   LAYER,ROW,COL  LAYER,ROW,COL  LAYER,ROW,COL  LAYER,ROW,COL  LAYER,ROW,COL
 ---------------------------------------------------------------------------
  1 -0.1195E-01  0  0.1958E-01  0 -0.7959E-02  0  0.1133E-01  0 -0.9499E-02
   (  7,  1, 12)  (  8,  1, 12)  (  8,  1, 12)  ( 11,  1, 51)  ( 11,  1, 51)
  0 -0.5921E-02  0 -0.9474E-03  1  0.9468E-03
   ( 11,  1, 69)  ( 11,  1, 38)  ( 11,  1, 70)

 MAXIMUM RESIDUAL FOR EACH ITERATION (1 INDICATES THE FIRST INNER ITERATION):

    RESIDUAL       RESIDUAL       RESIDUAL       RESIDUAL       RESIDUAL    
   LAYER,ROW,COL  LAYER,ROW,COL  LAYER,ROW,COL  LAYER,ROW,COL  LAYER,ROW,COL
 ---------------------------------------------------------------------------
  1 -0.1534E+06  0 -0.1464E+06  0  0.1097E+06  0  0.4322E+05  0  -7876.    
   ( 21,  1, 89)  ( 21,  1, 89)  ( 19,  1, 89)  ( 19,  1, 89)  ( 18,  1, 89)
  0  -3494.      0  -2918.      1  -2379.    
   ( 18,  1, 89)  ( 22,  1, 87)  ( 22,  1, 87)


 FLOW MODEL IS TRANSIENT
 FLOW MODEL CONTAINS CONSTANT-HEAD CELLS


 MAXIMUM STEPSIZE DURING WHICH ANY PARTICLE CANNOT MOVE MORE THAN ONE CELL
 =  13.20    (WHEN MIN. R.F.=1)  AT K=  17, I=   1, J=  90

 MAXIMUM STEPSIZE WHICH MEETS STABILITY CRITERION OF THE ADVECTION TERM
 (FOR PURE FINITE-DIFFERENCE OPTION, MIXELM=0) 
 =  7.965    (WHEN MIN. R.F.=1)  AT K=  16, I=   1, J=  90


 TOTAL NUMBER OF POINT SOURCES/SINKS PRESENT IN THE FLOW MODEL =    30

 MAXIMUM STEPSIZE WHICH MEETS STABILITY CRITERION OF THE SINK & SOURCE TERM
 =  12.20    (WHEN MIN. R.F.=1)  AT K=  17, I=   1, J=  91

 MAXIMUM STEPSIZE WHICH MEETS STABILITY CRITERION OF THE DISPERSION TERM
 =  4.366    (WHEN MIN. R.F.=1)  AT K=  17, I=   1, J=  90
     1 CALLS TO GCG PACKAGE FOR TRANSPORT TIME STEP   2 IN FLOW TIME STEP   1 STRESS PERIOD   1
    11 TOTAL ITERATIONS
     1 CALLS TO GCG PACKAGE FOR TRANSPORT TIME STEP   2 IN FLOW TIME STEP   1 STRESS PERIOD   1
    11 TOTAL ITERATIONS
 
 SOLVING FOR HEAD 


     2 CALLS TO PCG ROUTINE FOR TIME STEP   1 IN STRESS PERIOD    1
     9 TOTAL ITERATIONS

 MAXIMUM HEAD CHANGE FOR EACH ITERATION (1 INDICATES THE FIRST INNER ITERATION):

    HEAD CHANGE    HEAD CHANGE    HEAD CHANGE    HEAD CHANGE    HEAD CHANGE 
   LAYER,ROW,COL  LAYER,ROW,COL  LAYER,ROW,COL  LAYER,ROW,COL  LAYER,ROW,COL
 ---------------------------------------------------------------------------
  1  0.1444E-01  0  0.8612E-02  0 -0.9359E-02  0  0.1096E-01  0  0.7956E-02
   ( 15,  1, 86)  (  7,  1, 12)  (  8,  1, 12)  ( 11,  1, 54)  ( 11,  1, 38)
  0  0.2818E-02  0 -0.2253E-02  0  0.8645E-03  1 -0.6402E-03
   (  7,  1, 32)  ( 11,  1, 70)  ( 11,  1, 66)  ( 11,  1, 66)

 MAXIMUM RESIDUAL FOR EACH ITERATION (1 INDICATES THE FIRST INNER ITERATION):

    RESIDUAL       RESIDUAL       RESIDUAL       RESIDUAL       RESIDUAL    
   LAYER,ROW,COL  LAYER,ROW,COL  LAYER,ROW,COL  LAYER,ROW,COL  LAYER,ROW,COL
 ---------------------------------------------------------------------------
  1  0.1493E+06  0 -0.1089E+06  0 -0.1090E+06  0 -0.8442E+05  0  -6066.    
   ( 21,  1, 89)  ( 19,  1, 89)  ( 19,  1, 89)  ( 19,  1, 89)  ( 17,  1, 87)
  0   3221.      0   2826.      0   2195.      1   1898.    
   ( 17,  1, 88)  ( 22,  1, 87)  ( 22,  1, 87)  ( 22,  1, 87)


 FLOW MODEL IS TRANSIENT
 FLOW MODEL CONTAINS CONSTANT-HEAD CELLS


 MAXIMUM STEPSIZE DURING WHICH ANY PARTICLE CANNOT MOVE MORE THAN ONE CELL
 =  12.83    (WHEN MIN. R.F.=1)  AT K=  17, I=   1, J=  90

 MAXIMUM STEPSIZE WHICH MEETS STABILITY CRITERION OF THE ADVECTION TERM
 (FOR PURE FINITE-DIFFERENCE OPTION, MIXELM=0) 
 =  8.008    (WHEN MIN. R.F.=1)  AT K=  16, I=   1, J=  90


 TOTAL NUMBER OF POINT SOURCES/SINKS PRESENT IN THE FLOW MODEL =    30

 MAXIMUM STEPSIZE WHICH MEETS STABILITY CRITERION OF THE SINK & SOURCE TERM
 =  12.31    (WHEN MIN. R.F.=1)  AT K=  17, I=   1, J=  91

 MAXIMUM STEPSIZE WHICH MEETS STABILITY CRITERION OF THE DISPERSION TERM
 =  4.024    (WHEN MIN. R.F.=1)  AT K=  17, I=   1, J=  90
     1 CALLS TO GCG PACKAGE FOR TRANSPORT TIME STEP   3 IN FLOW TIME STEP   1 STRESS PERIOD   1
     8 TOTAL ITERATIONS
     1 CALLS TO GCG PACKAGE FOR TRANSPORT TIME STEP   3 IN FLOW TIME STEP   1 STRESS PERIOD   1
    11 TOTAL ITERATIONS
 
 SOLVING FOR HEAD 


     2 CALLS TO PCG ROUTINE FOR TIME STEP   1 IN STRESS PERIOD    1
     8 TOTAL ITERATIONS

 MAXIMUM HEAD CHANGE FOR EACH ITERATION (1 INDICATES THE FIRST INNER ITERATION):

    HEAD CHANGE    HEAD CHANGE    HEAD CHANGE    HEAD CHANGE    HEAD CHANGE 
   LAYER,ROW,COL  LAYER,ROW,COL  LAYER,ROW,COL  LAYER,ROW,COL  LAYER,ROW,COL
 ---------------------------------------------------------------------------
  1 -0.1402E-01  0  0.4299E-02  0  0.2614E-02  0  0.1190E-01  0 -0.1058E-01
   ( 15,  1, 86)  ( 17,  1, 89)  (  8,  1, 12)  ( 11,  1, 66)  ( 11,  1, 66)
  0 -0.1864E-02  0 -0.8234E-03  1  0.7221E-03
   ( 11,  1, 49)  (  7,  1, 32)  ( 11,  1, 56)

 MAXIMUM RESIDUAL FOR EACH ITERATION (1 INDICATES THE FIRST INNER ITERATION):

    RESIDUAL       RESIDUAL       RESIDUAL       RESIDUAL       RESIDUAL    
   LAYER,ROW,COL  LAYER,ROW,COL  LAYER,ROW,COL  LAYER,ROW,COL  LAYER,ROW,COL
 ---------------------------------------------------------------------------
  1 -0.1419E+06  0  0.1002E+06  0  0.9720E+05  0  0.5042E+05  0  -6300.    
   ( 21,  1, 89)  ( 19,  1, 89)  ( 19,  1, 89)  ( 19,  1, 89)  ( 17,  1, 88)
  0  -2927.      0  -2725.      1  -1966.    
   ( 22,  1, 87)  ( 22,  1, 87)  ( 22,  1, 87)


 FLOW MODEL IS TRANSIENT
 FLOW MODEL CONTAINS CONSTANT-HEAD CELLS


 MAXIMUM STEPSIZE DURING WHICH ANY PARTICLE CANNOT MOVE MORE THAN ONE CELL
 =  13.15    (WHEN MIN. R.F.=1)  AT K=  17, I=   1, J=  90

 MAXIMUM STEPSIZE WHICH MEETS STABILITY CRITERION OF THE ADVECTION TERM
 (FOR PURE FINITE-DIFFERENCE OPTION, MIXELM=0) 
 =  7.959    (WHEN MIN. R.F.=1)  AT K=  16, I=   1, J=  90


 TOTAL NUMBER OF POINT SOURCES/SINKS PRESENT IN THE FLOW MODEL =    30

 MAXIMUM STEPSIZE WHICH MEETS STABILITY CRITERION OF THE SINK & SOURCE TERM
 =  12.17    (WHEN MIN. R.F.=1)  AT K=  17, I=   1, J=  91

 MAXIMUM STEPSIZE WHICH MEETS STABILITY CRITERION OF THE DISPERSION TERM
 =  4.351    (WHEN MIN. R.F.=1)  AT K=  17, I=   1, J=  90
     1 CALLS TO GCG PACKAGE FOR TRANSPORT TIME STEP   4 IN FLOW TIME STEP   1 STRESS PERIOD   1
     8 TOTAL ITERATIONS
     1 CALLS TO GCG PACKAGE FOR TRANSPORT TIME STEP   4 IN FLOW TIME STEP   1 STRESS PERIOD   1
    11 TOTAL ITERATIONS
 
 SOLVING FOR HEAD 


     2 CALLS TO PCG ROUTINE FOR TIME STEP   1 IN STRESS PERIOD    1
     9 TOTAL ITERATIONS

 MAXIMUM HEAD CHANGE FOR EACH ITERATION (1 INDICATES THE FIRST INNER ITERATION):

    HEAD CHANGE    HEAD CHANGE    HEAD CHANGE    HEAD CHANGE    HEAD CHANGE 
   LAYER,ROW,COL  LAYER,ROW,COL  LAYER,ROW,COL  LAYER,ROW,COL  LAYER,ROW,COL
 ---------------------------------------------------------------------------
  1  0.1414E-01  0  0.9439E-02  0 -0.5486E-02  0 -0.9672E-02  0  0.6783E-02
   ( 15,  1, 86)  (  5,  1, 40)  (  7,  1, 12)  (  9,  1, 44)  (  7,  1, 45)
  0 -0.3996E-02  0 -0.1550E-02  0 -0.9916E-03  1  0.7044E-03
   ( 11,  1, 70)  ( 11,  1, 54)  ( 11,  1, 66)  ( 11,  1, 66)

 MAXIMUM RESIDUAL FOR EACH ITERATION (1 INDICATES THE FIRST INNER ITERATION):

    RESIDUAL       RESIDUAL       RESIDUAL       RESIDUAL       RESIDUAL    
   LAYER,ROW,COL  LAYER,ROW,COL  LAYER,ROW,COL  LAYER,ROW,COL  LAYER,ROW,COL
 ---------------------------------------------------------------------------
  1  0.1411E+06  0 -0.1023E+06  0 -0.1017E+06  0 -0.8425E+05  0   6565.    
   ( 21,  1, 89)  ( 19,  1, 89)  ( 19,  1, 89)  ( 19,  1, 89)  ( 17,  1, 88)
  0   3373.      0   2602.      0   1242.      1   1094.    
   ( 17,  1, 88)  ( 22,  1, 87)  ( 22,  1, 87)  ( 22,  1, 87)


 FLOW MODEL IS TRANSIENT
 FLOW MODEL CONTAINS CONSTANT-HEAD CELLS


 MAXIMUM STEPSIZE DURING WHICH ANY PARTICLE CANNOT MOVE MORE THAN ONE CELL
 =  12.80    (WHEN MIN. R.F.=1)  AT K=  17, I=   1, J=  90

 MAXIMUM STEPSIZE WHICH MEETS STABILITY CRITERION OF THE ADVECTION TERM
 (FOR PURE FINITE-DIFFERENCE OPTION, MIXELM=0) 
 =  8.009    (WHEN MIN. R.F.=1)  AT K=  16, I=   1, J=  90


 TOTAL NUMBER OF POINT SOURCES/SINKS PRESENT IN THE FLOW MODEL =    30

 MAXIMUM STEPSIZE WHICH MEETS STABILITY CRITERION OF THE SINK & SOURCE TERM
 =  12.20    (WHEN MIN. R.F.=1)  AT K=  17, I=   1, J=  91

 MAXIMUM STEPSIZE WHICH MEETS STABILITY CRITERION OF THE DISPERSION TERM
 =  4.006    (WHEN MIN. R.F.=1)  AT K=  17, I=   1, J=  90
     1 CALLS TO GCG PACKAGE FOR TRANSPORT TIME STEP   5 IN FLOW TIME STEP   1 STRESS PERIOD   1
     8 TOTAL ITERATIONS
  MAXIMUM CONCENTRATION CHANGES FOR EACH ITERATION:
  MAX. CHANGE LAYER,ROW,COL MAX. CHANGE LAYER,ROW,COL MAX. CHANGE LAYER,ROW,COL MAX. CHANGE LAYER,ROW,COL MAX. CHANGE LAYER,ROW,COL
 ------------------------------------------------------------------------------------------------------------------------------------
   0.5259E-01 ( 20,  1, 87)  0.4424E-02 ( 19,  1, 89)  0.2222E-02 ( 17,  1, 86)  0.5026E-03 ( 20,  1, 89)  0.9883E-04 ( 16,  1, 89)
   0.2228E-04 ( 20,  1, 89)  0.2533E-04 ( 16,  1, 90)  0.7010E-06 ( 17,  1, 90)
     1 CALLS TO GCG PACKAGE FOR TRANSPORT TIME STEP   5 IN FLOW TIME STEP   1 STRESS PERIOD   1
    11 TOTAL ITERATIONS
  MAXIMUM CONCENTRATION CHANGES FOR EACH ITERATION:
  MAX. CHANGE LAYER,ROW,COL MAX. CHANGE LAYER,ROW,COL MAX. CHANGE LAYER,ROW,COL MAX. CHANGE LAYER,ROW,COL MAX. CHANGE LAYER,ROW,COL
 ------------------------------------------------------------------------------------------------------------------------------------
   0.2675     ( 12,  1, 76)  0.8634E-01 ( 17,  1, 85)  0.4716E-01 ( 17,  1, 89)  0.1180E-01 ( 16,  1, 89)  0.4161E-02 ( 17,  1, 90)
   0.1471E-02 ( 17,  1, 90)  0.2766E-03 ( 17,  1, 90)  0.1416E-04 ( 16,  1, 89)  0.3273E-04 ( 16,  1, 89)  0.1451E-05 ( 17,  1, 83)
   0.1792E-06 ( 17,  1, 89)
 
 SOLVING FOR HEAD 


     2 CALLS TO PCG ROUTINE FOR TIME STEP   1 IN STRESS PERIOD    1
     8 TOTAL ITERATIONS

 MAXIMUM HEAD CHANGE FOR EACH ITERATION (1 INDICATES THE FIRST INNER ITERATION):

    HEAD CHANGE    HEAD CHANGE    HEAD CHANGE    HEAD CHANGE    HEAD CHANGE 
   LAYER,ROW,COL  LAYER,ROW,COL  LAYER,ROW,COL  LAYER,ROW,COL  LAYER,ROW,COL
 ---------------------------------------------------------------------------
  1 -0.1376E-01  0  0.4166E-02  0  0.2504E-02  0  0.9853E-02  0 -0.1163E-01
   ( 15,  1, 86)  ( 17,  1, 89)  (  8,  1, 12)  ( 11,  1, 50)  ( 11,  1, 50)
  0  0.2373E-02  0  0.9824E-03  1  0.6441E-03
   ( 11,  1, 51)  ( 11,  1, 70)  ( 11,  1, 40)

 MAXIMUM RESIDUAL FOR EACH ITERATION (1 INDICATES THE FIRST INNER ITERATION):

    RESIDUAL       RESIDUAL       RESIDUAL       RESIDUAL       RESIDUAL    
   LAYER,ROW,COL  LAYER,ROW,COL  LAYER,ROW,COL  LAYER,ROW,COL  LAYER,ROW,COL
 ---------------------------------------------------------------------------
  1 -0.1369E+06  0  0.9612E+05  0  0.9479E+05  0  0.2029E+05  0  -5056.    
   ( 21,  1, 89)  ( 19,  1, 89)  ( 19,  1, 89)  ( 19,  1, 89)  ( 17,  1, 88)
  0  -2851.      0  -2535.      1  -2077.    
   ( 22,  1, 87)  ( 22,  1, 87)  ( 22,  1, 87)


 FLOW MODEL IS TRANSIENT
 FLOW MODEL CONTAINS CONSTANT-HEAD CELLS


 MAXIMUM STEPSIZE DURING WHICH ANY PARTICLE CANNOT MOVE MORE THAN ONE CELL
 =  13.20    (WHEN MIN. R.F.=1)  AT K=  17, I=   1, J=  90

 MAXIMUM STEPSIZE WHICH MEETS STABILITY CRITERION OF THE ADVECTION TERM
 (FOR PURE FINITE-DIFFERENCE OPTION, MIXELM=0) 
 =  7.982    (WHEN MIN. R.F.=1)  AT K=  16, I=   1, J=  90


 TOTAL NUMBER OF POINT SOURCES/SINKS PRESENT IN THE FLOW MODEL =    30

 MAXIMUM STEPSIZE WHICH MEETS STABILITY CRITERION OF THE SINK & SOURCE TERM
 =  12.16    (WHEN MIN. R.F.=1)  AT K=  17, I=   1, J=  91

 MAXIMUM STEPSIZE WHICH MEETS STABILITY CRITERION OF THE DISPERSION TERM
 =  4.379    (WHEN MIN. R.F.=1)  AT K=  17, I=   1, J=  90
     1 CALLS TO GCG PACKAGE FOR TRANSPORT TIME STEP   6 IN FLOW TIME STEP   1 STRESS PERIOD   1
    10 TOTAL ITERATIONS
     1 CALLS TO GCG PACKAGE FOR TRANSPORT TIME STEP   6 IN FLOW TIME STEP   1 STRESS PERIOD   1
    11 TOTAL ITERATIONS
 
 SOLVING FOR HEAD 


     2 CALLS TO PCG ROUTINE FOR TIME STEP   1 IN STRESS PERIOD    1
     9 TOTAL ITERATIONS

 MAXIMUM HEAD CHANGE FOR EACH ITERATION (1 INDICATES THE FIRST INNER ITERATION):

    HEAD CHANGE    HEAD CHANGE    HEAD CHANGE    HEAD CHANGE    HEAD CHANGE 
   LAYER,ROW,COL  LAYER,ROW,COL  LAYER,ROW,COL  LAYER,ROW,COL  LAYER,ROW,COL
 ---------------------------------------------------------------------------
  1  0.1408E-01  0  0.6173E-02  0 -0.6025E-02  0 -0.9716E-02  0 -0.6996E-02
   ( 15,  1, 86)  ( 11,  1, 40)  (  8,  1, 12)  ( 11,  1, 39)  (  8,  1, 51)
  0 -0.3420E-02  0 -0.1045E-02  0 -0.5839E-03  1 -0.5912E-03
   ( 11,  1, 49)  ( 11,  1, 56)  ( 11,  1, 65)  ( 11,  1, 60)

 MAXIMUM RESIDUAL FOR EACH ITERATION (1 INDICATES THE FIRST INNER ITERATION):

    RESIDUAL       RESIDUAL       RESIDUAL       RESIDUAL       RESIDUAL    
   LAYER,ROW,COL  LAYER,ROW,COL  LAYER,ROW,COL  LAYER,ROW,COL  LAYER,ROW,COL
 ---------------------------------------------------------------------------
  1  0.1388E+06  0 -0.9840E+05  0 -0.9799E+05  0 -0.7616E+05  0  -6452.    
   ( 21,  1, 89)  ( 19,  1, 89)  ( 19,  1, 89)  ( 19,  1, 89)  ( 17,  1, 87)
  0   3149.      0   2578.      0   1127.      1   1002.    
   ( 17,  1, 88)  ( 22,  1, 87)  ( 22,  1, 87)  ( 22,  1, 87)


 FLOW MODEL IS TRANSIENT
 FLOW MODEL CONTAINS CONSTANT-HEAD CELLS


 MAXIMUM STEPSIZE DURING WHICH ANY PARTICLE CANNOT MOVE MORE THAN ONE CELL
 =  12.86    (WHEN MIN. R.F.=1)  AT K=  17, I=   1, J=  90

 MAXIMUM STEPSIZE WHICH MEETS STABILITY CRITERION OF THE ADVECTION TERM
 (FOR PURE FINITE-DIFFERENCE OPTION, MIXELM=0) 
 =  8.033    (WHEN MIN. R.F.=1)  AT K=  16, I=   1, J=  90


 TOTAL NUMBER OF POINT SOURCES/SINKS PRESENT IN THE FLOW MODEL =    30

 MAXIMUM STEPSIZE WHICH MEETS STABILITY CRITERION OF THE SINK & SOURCE TERM
 =  12.25    (WHEN MIN. R.F.=1)  AT K=  17, I=   1, J=  91

 MAXIMUM STEPSIZE WHICH MEETS STABILITY CRITERION OF THE DISPERSION TERM
 =  4.031    (WHEN MIN. R.F.=1)  AT K=  17, I=   1, J=  90
     1 CALLS TO GCG PACKAGE FOR TRANSPORT TIME STEP   7 IN FLOW TIME STEP   1 STRESS PERIOD   1
     8 TOTAL ITERATIONS
     1 CALLS TO GCG PACKAGE FOR TRANSPORT TIME STEP   7 IN FLOW TIME STEP   1 STRESS PERIOD   1
    11 TOTAL ITERATIONS
 
 SOLVING FOR HEAD 


     2 CALLS TO PCG ROUTINE FOR TIME STEP   1 IN STRESS PERIOD    1
     8 TOTAL ITERATIONS

 MAXIMUM HEAD CHANGE FOR EACH ITERATION (1 INDICATES THE FIRST INNER ITERATION):

    HEAD CHANGE    HEAD CHANGE    HEAD CHANGE    HEAD CHANGE    HEAD CHANGE 
   LAYER,ROW,COL  LAYER,ROW,COL  LAYER,ROW,COL  LAYER,ROW,COL  LAYER,ROW,COL
 ---------------------------------------------------------------------------
  1 -0.1371E-01  0  0.4215E-02  0  0.3076E-02  0  0.7783E-02  0 -0.8568E-02
   ( 15,  1, 86)  ( 17,  1, 89)  (  8,  1, 12)  ( 11,  1, 58)  ( 11,  1, 58)
  0  0.1721E-02  0  0.7610E-03  1  0.5550E-03
   ( 11,  1, 54)  ( 11,  1, 49)  ( 11,  1, 67)

 MAXIMUM RESIDUAL FOR EACH ITERATION (1 INDICATES THE FIRST INNER ITERATION):

    RESIDUAL       RESIDUAL       RESIDUAL       RESIDUAL       RESIDUAL    
   LAYER,ROW,COL  LAYER,ROW,COL  LAYER,ROW,COL  LAYER,ROW,COL  LAYER,ROW,COL
 ---------------------------------------------------------------------------
  1 -0.1396E+06  0  0.9933E+05  0  0.9828E+05  0  0.2362E+05  0  -5388.    
   ( 21,  1, 89)  ( 19,  1, 89)  ( 19,  1, 89)  ( 19,  1, 89)  ( 17,  1, 88)
  0  -2821.      0  -2371.      1  -2052.    
   ( 22,  1, 87)  ( 22,  1, 87)  ( 22,  1, 87)


 FLOW MODEL IS TRANSIENT
 FLOW MODEL CONTAINS CONSTANT-HEAD CELLS


 MAXIMUM STEPSIZE DURING WHICH ANY PARTICLE CANNOT MOVE MORE THAN ONE CELL
 =  13.22    (WHEN MIN. R.F.=1)  AT K=  17, I=   1, J=  90

 MAXIMUM STEPSIZE WHICH MEETS STABILITY CRITERION OF THE ADVECTION TERM
 (FOR PURE FINITE-DIFFERENCE OPTION, MIXELM=0) 
 =  7.991    (WHEN MIN. R.F.=1)  AT K=  16, I=   1, J=  90


 TOTAL NUMBER OF POINT SOURCES/SINKS PRESENT IN THE FLOW MODEL =    30

 MAXIMUM STEPSIZE WHICH MEETS STABILITY CRITERION OF THE SINK & SOURCE TERM
 =  12.17    (WHEN MIN. R.F.=1)  AT K=  17, I=   1, J=  91

 MAXIMUM STEPSIZE WHICH MEETS STABILITY CRITERION OF THE DISPERSION TERM
 =  4.387    (WHEN MIN. R.F.=1)  AT K=  17, I=   1, J=  90
     1 CALLS TO GCG PACKAGE FOR TRANSPORT TIME STEP   8 IN FLOW TIME STEP   1 STRESS PERIOD   1
    10 TOTAL ITERATIONS
     1 CALLS TO GCG PACKAGE FOR TRANSPORT TIME STEP   8 IN FLOW TIME STEP   1 STRESS PERIOD   1
    10 TOTAL ITERATIONS
 
 SOLVING FOR HEAD 


     2 CALLS TO PCG ROUTINE FOR TIME STEP   1 IN STRESS PERIOD    1
    10 TOTAL ITERATIONS

 MAXIMUM HEAD CHANGE FOR EACH ITERATION (1 INDICATES THE FIRST INNER ITERATION):

    HEAD CHANGE    HEAD CHANGE    HEAD CHANGE    HEAD CHANGE    HEAD CHANGE 
   LAYER,ROW,COL  LAYER,ROW,COL  LAYER,ROW,COL  LAYER,ROW,COL  LAYER,ROW,COL
 ---------------------------------------------------------------------------
  1  0.1396E-01  0  0.5829E-02  0 -0.5422E-02  0 -0.9717E-02  0  0.7754E-02
   ( 15,  1, 86)  (  7,  1, 49)  (  8,  1, 12)  (  7,  1, 50)  (  9,  1, 51)
  0 -0.4417E-02  0  0.1493E-02  0  0.1024E-02  0 -0.7378E-03  1  0.1623E-03
   ( 11,  1, 60)  ( 11,  1, 60)  ( 11,  1, 69)  ( 11,  1, 69)  ( 11,  1, 71)

 MAXIMUM RESIDUAL FOR EACH ITERATION (1 INDICATES THE FIRST INNER ITERATION):

    RESIDUAL       RESIDUAL       RESIDUAL       RESIDUAL       RESIDUAL    
   LAYER,ROW,COL  LAYER,ROW,COL  LAYER,ROW,COL  LAYER,ROW,COL  LAYER,ROW,COL
 ---------------------------------------------------------------------------
  1  0.1393E+06  0 -0.9874E+05  0 -0.9821E+05  0 -0.7118E+05  0  -6170.    
   ( 21,  1, 89)  ( 19,  1, 89)  ( 19,  1, 89)  ( 19,  1, 89)  ( 17,  1, 87)
  0   2855.      0   2581.      0   975.7      0   370.8      1  -338.5    
   ( 17,  1, 88)  ( 22,  1, 87)  ( 22,  1, 87)  ( 22,  1, 87)  ( 18,  1, 90)


 FLOW MODEL IS TRANSIENT
 FLOW MODEL CONTAINS CONSTANT-HEAD CELLS


 MAXIMUM STEPSIZE DURING WHICH ANY PARTICLE CANNOT MOVE MORE THAN ONE CELL
 =  12.86    (WHEN MIN. R.F.=1)  AT K=  17, I=   1, J=  90

 MAXIMUM STEPSIZE WHICH MEETS STABILITY CRITERION OF THE ADVECTION TERM
 (FOR PURE FINITE-DIFFERENCE OPTION, MIXELM=0) 
 =  8.035    (WHEN MIN. R.F.=1)  AT K=  16, I=   1, J=  90


 TOTAL NUMBER OF POINT SOURCES/SINKS PRESENT IN THE FLOW MODEL =    30

 MAXIMUM STEPSIZE WHICH MEETS STABILITY CRITERION OF THE SINK & SOURCE TERM
 =  12.24    (WHEN MIN. R.F.=1)  AT K=  17, I=   1, J=  91

 MAXIMUM STEPSIZE WHICH MEETS STABILITY CRITERION OF THE DISPERSION TERM
 =  4.031    (WHEN MIN. R.F.=1)  AT K=  17, I=   1, J=  90
     1 CALLS TO GCG PACKAGE FOR TRANSPORT TIME STEP   9 IN FLOW TIME STEP   1 STRESS PERIOD   1
     8 TOTAL ITERATIONS
     1 CALLS TO GCG PACKAGE FOR TRANSPORT TIME STEP   9 IN FLOW TIME STEP   1 STRESS PERIOD   1
    10 TOTAL ITERATIONS
 
 SOLVING FOR HEAD 


     2 CALLS TO PCG ROUTINE FOR TIME STEP   1 IN STRESS PERIOD    1
     8 TOTAL ITERATIONS

 MAXIMUM HEAD CHANGE FOR EACH ITERATION (1 INDICATES THE FIRST INNER ITERATION):

    HEAD CHANGE    HEAD CHANGE    HEAD CHANGE    HEAD CHANGE    HEAD CHANGE 
   LAYER,ROW,COL  LAYER,ROW,COL  LAYER,ROW,COL  LAYER,ROW,COL  LAYER,ROW,COL
 ---------------------------------------------------------------------------
  1 -0.1359E-01  0  0.4052E-02  0  0.2484E-02  0  0.8636E-02  0 -0.1076E-01
   ( 15,  1, 86)  ( 17,  1, 89)  (  8,  1, 12)  ( 11,  1, 55)  ( 11,  1, 55)
  0  0.2425E-02  0  0.8959E-03  1  0.8409E-03
   ( 11,  1, 56)  ( 11,  1, 64)  ( 11,  1, 49)

 MAXIMUM RESIDUAL FOR EACH ITERATION (1 INDICATES THE FIRST INNER ITERATION):

    RESIDUAL       RESIDUAL       RESIDUAL       RESIDUAL       RESIDUAL    
   LAYER,ROW,COL  LAYER,ROW,COL  LAYER,ROW,COL  LAYER,ROW,COL  LAYER,ROW,COL
 ---------------------------------------------------------------------------
  1 -0.1389E+06  0  0.9883E+05  0  0.9738E+05  0  0.1648E+05  0  -4676.    
   ( 21,  1, 89)  ( 19,  1, 89)  ( 19,  1, 89)  ( 19,  1, 89)  ( 17,  1, 88)
  0  -2830.      0  -2147.      1  -1853.    
   ( 22,  1, 87)  ( 22,  1, 87)  ( 22,  1, 87)


 FLOW MODEL IS TRANSIENT
 FLOW MODEL CONTAINS CONSTANT-HEAD CELLS


 MAXIMUM STEPSIZE DURING WHICH ANY PARTICLE CANNOT MOVE MORE THAN ONE CELL
 =  13.25    (WHEN MIN. R.F.=1)  AT K=  17, I=   1, J=  90

 MAXIMUM STEPSIZE WHICH MEETS STABILITY CRITERION OF THE ADVECTION TERM
 (FOR PURE FINITE-DIFFERENCE OPTION, MIXELM=0) 
 =  8.003    (WHEN MIN. R.F.=1)  AT K=  16, I=   1, J=  90


 TOTAL NUMBER OF POINT SOURCES/SINKS PRESENT IN THE FLOW MODEL =    30

 MAXIMUM STEPSIZE WHICH MEETS STABILITY CRITERION OF THE SINK & SOURCE TERM
 =  12.19    (WHEN MIN. R.F.=1)  AT K=  17, I=   1, J=  91

 MAXIMUM STEPSIZE WHICH MEETS STABILITY CRITERION OF THE DISPERSION TERM
 =  4.395    (WHEN MIN. R.F.=1)  AT K=  17, I=   1, J=  90
     1 CALLS TO GCG PACKAGE FOR TRANSPORT TIME STEP  10 IN FLOW TIME STEP   1 STRESS PERIOD   1
    10 TOTAL ITERATIONS
  MAXIMUM CONCENTRATION CHANGES FOR EACH ITERATION:
  MAX. CHANGE LAYER,ROW,COL MAX. CHANGE LAYER,ROW,COL MAX. CHANGE LAYER,ROW,COL MAX. CHANGE LAYER,ROW,COL MAX. CHANGE LAYER,ROW,COL
 ------------------------------------------------------------------------------------------------------------------------------------
   0.4925E-01 ( 20,  1, 87)  0.3439E-02 ( 19,  1, 87)  0.2289E-02 ( 18,  1, 87)  0.2268E-03 ( 16,  1, 88)  0.1482E-03 ( 16,  1, 89)
   0.3121E-04 ( 16,  1, 90)  0.2414E-05 ( 21,  1, 78)  0.1579E-05 ( 15,  1, 89)  0.1347E-05 ( 16,  1, 89)  0.9623E-07 ( 17,  1, 89)
     1 CALLS TO GCG PACKAGE FOR TRANSPORT TIME STEP  10 IN FLOW TIME STEP   1 STRESS PERIOD   1
    10 TOTAL ITERATIONS
  MAXIMUM CONCENTRATION CHANGES FOR EACH ITERATION:
  MAX. CHANGE LAYER,ROW,COL MAX. CHANGE LAYER,ROW,COL MAX. CHANGE LAYER,ROW,COL MAX. CHANGE LAYER,ROW,COL MAX. CHANGE LAYER,ROW,COL
 ------------------------------------------------------------------------------------------------------------------------------------
   0.1189     ( 12,  1, 75)  0.3770E-01 ( 17,  1, 84)  0.1833E-01 ( 17,  1, 88)  0.4293E-02 ( 16,  1, 89)  0.1302E-02 ( 17,  1, 90)
   0.5113E-03 ( 17,  1, 90)  0.1304E-03 ( 17,  1, 90)  0.9182E-05 ( 17,  1, 88)  0.1128E-04 ( 17,  1, 88)  0.6031E-06 ( 16,  1, 88)



 >>>>>>>>>>>>>>>>>>>>>>>>>>>>>>>>>>>>>>>>>>>>>>>>>>>>>>>FOR COMPONENT NO. 01<<<<<<<<<<<<<<<<<<<<<<<<<<<<<<<<<<<<<<<<<<<<<<<<<<<<<<<


                                            -------------------------------------------
                                                      TRANSPORT STEP NO.   10
                                            -------------------------------------------

 TOTAL ELAPSED TIME SINCE BEGINNING OF SIMULATION =   500.0000    D   
 .....................................................................

                     CUMMULATIVE MASS BUDGETS AT END OF TRANSPORT STEP   10, TIME STEP    1, STRESS PERIOD    1
                     ------------------------------------------------------------------------------------------

                                                             IN                           OUT
                                                      ----------------             ----------------
                               CONSTANT CONCENTRATION:    0.000000                    0.000000    
                                        CONSTANT HEAD:   0.1988914E+08              -0.1984482E+08
                                                WELLS:    0.000000                    0.000000    
                                             RECHARGE:    0.000000                    0.000000    
                               1ST/0TH ORDER REACTION:    0.000000                    0.000000    
                                MASS STORAGE (SOLUTE):    2793620.                   -2837943.    
                            ---------------------------------------------------------------------------
                                              [TOTAL]:   0.2268280E+08 KG           -0.2268280E+08 KG  

                                                          NET (IN - OUT):    5.516597    
                                                   DISCREPANCY (PERCENT):   0.2432062E-04



 >>>>>>>>>>>>>>>>>>>>>>>>>>>>>>>>>>>>>>>>>>>>>>>>>>>>>>>FOR COMPONENT NO. 02<<<<<<<<<<<<<<<<<<<<<<<<<<<<<<<<<<<<<<<<<<<<<<<<<<<<<<<


                                            -------------------------------------------
                                                      TRANSPORT STEP NO.   10
                                            -------------------------------------------

 TOTAL ELAPSED TIME SINCE BEGINNING OF SIMULATION =   500.0000    D   
 .....................................................................

                     CUMMULATIVE MASS BUDGETS AT END OF TRANSPORT STEP   10, TIME STEP    1, STRESS PERIOD    1
                     ------------------------------------------------------------------------------------------

                                                             IN                           OUT
                                                      ----------------             ----------------
                               CONSTANT CONCENTRATION:    0.000000                    0.000000    
                                        CONSTANT HEAD:    0.000000                  -0.1653158E+09
                                                WELLS:    0.000000                    0.000000    
                                             RECHARGE:    0.000000                    0.000000    
                               1ST/0TH ORDER REACTION:   0.8275000E+10                0.000000    
                                MASS STORAGE (SOLUTE):    0.000000                  -0.8109684E+10
                            ---------------------------------------------------------------------------
                                              [TOTAL]:   0.8275001E+10 KG           -0.8275001E+10 KG  

                                                          NET (IN - OUT):   -10.45650    
                                                   DISCREPANCY (PERCENT):  -0.1263625E-06
 
 SOLVING FOR HEAD 


     2 CALLS TO PCG ROUTINE FOR TIME STEP   1 IN STRESS PERIOD    1
     9 TOTAL ITERATIONS

 MAXIMUM HEAD CHANGE FOR EACH ITERATION (1 INDICATES THE FIRST INNER ITERATION):

    HEAD CHANGE    HEAD CHANGE    HEAD CHANGE    HEAD CHANGE    HEAD CHANGE 
   LAYER,ROW,COL  LAYER,ROW,COL  LAYER,ROW,COL  LAYER,ROW,COL  LAYER,ROW,COL
 ---------------------------------------------------------------------------
  1  0.1376E-01  0  0.4765E-02  0 -0.4661E-02  0 -0.1561E-01  0  0.1396E-01
   ( 15,  1, 86)  ( 11,  1, 49)  (  8,  1, 12)  ( 11,  1, 49)  ( 11,  1, 49)
  0 -0.2576E-02  0 -0.1306E-02  0  0.6222E-03  1 -0.6981E-03
   ( 11,  1, 54)  ( 11,  1, 49)  ( 11,  1, 52)  ( 11,  1, 53)

 MAXIMUM RESIDUAL FOR EACH ITERATION (1 INDICATES THE FIRST INNER ITERATION):

    RESIDUAL       RESIDUAL       RESIDUAL       RESIDUAL       RESIDUAL    
   LAYER,ROW,COL  LAYER,ROW,COL  LAYER,ROW,COL  LAYER,ROW,COL  LAYER,ROW,COL
 ---------------------------------------------------------------------------
  1  0.1386E+06  0 -0.9795E+05  0 -0.9727E+05  0 -0.4271E+05  0  -5528.    
   ( 21,  1, 89)  ( 19,  1, 89)  ( 19,  1, 89)  ( 19,  1, 89)  ( 17,  1, 87)
  0   2793.      0   2616.      0   1481.      1   1321.    
   ( 22,  1, 87)  ( 22,  1, 87)  ( 22,  1, 87)  ( 22,  1, 87)


 FLOW MODEL IS TRANSIENT
 FLOW MODEL CONTAINS CONSTANT-HEAD CELLS


 MAXIMUM STEPSIZE DURING WHICH ANY PARTICLE CANNOT MOVE MORE THAN ONE CELL
 =  12.87    (WHEN MIN. R.F.=1)  AT K=  17, I=   1, J=  90

 MAXIMUM STEPSIZE WHICH MEETS STABILITY CRITERION OF THE ADVECTION TERM
 (FOR PURE FINITE-DIFFERENCE OPTION, MIXELM=0) 
 =  8.037    (WHEN MIN. R.F.=1)  AT K=  16, I=   1, J=  90


 TOTAL NUMBER OF POINT SOURCES/SINKS PRESENT IN THE FLOW MODEL =    30

 MAXIMUM STEPSIZE WHICH MEETS STABILITY CRITERION OF THE SINK & SOURCE TERM
 =  12.24    (WHEN MIN. R.F.=1)  AT K=  17, I=   1, J=  91

 MAXIMUM STEPSIZE WHICH MEETS STABILITY CRITERION OF THE DISPERSION TERM
 =  4.037    (WHEN MIN. R.F.=1)  AT K=  17, I=   1, J=  90
     1 CALLS TO GCG PACKAGE FOR TRANSPORT TIME STEP  11 IN FLOW TIME STEP   1 STRESS PERIOD   1
     8 TOTAL ITERATIONS
     1 CALLS TO GCG PACKAGE FOR TRANSPORT TIME STEP  11 IN FLOW TIME STEP   1 STRESS PERIOD   1
    10 TOTAL ITERATIONS
 
 SOLVING FOR HEAD 


     2 CALLS TO PCG ROUTINE FOR TIME STEP   1 IN STRESS PERIOD    1
     8 TOTAL ITERATIONS

 MAXIMUM HEAD CHANGE FOR EACH ITERATION (1 INDICATES THE FIRST INNER ITERATION):

    HEAD CHANGE    HEAD CHANGE    HEAD CHANGE    HEAD CHANGE    HEAD CHANGE 
   LAYER,ROW,COL  LAYER,ROW,COL  LAYER,ROW,COL  LAYER,ROW,COL  LAYER,ROW,COL
 ---------------------------------------------------------------------------
  1 -0.1385E-01  0  0.4261E-02  0  0.3162E-02  0  0.9516E-02  0 -0.9325E-02
   ( 15,  1, 86)  ( 17,  1, 89)  (  8,  1, 12)  ( 11,  1, 51)  ( 11,  1, 50)
  0 -0.1523E-02  0  0.9204E-03  1 -0.5551E-03
   ( 11,  1, 70)  ( 11,  1, 52)  ( 11,  1, 52)

 MAXIMUM RESIDUAL FOR EACH ITERATION (1 INDICATES THE FIRST INNER ITERATION):

    RESIDUAL       RESIDUAL       RESIDUAL       RESIDUAL       RESIDUAL    
   LAYER,ROW,COL  LAYER,ROW,COL  LAYER,ROW,COL  LAYER,ROW,COL  LAYER,ROW,COL
 ---------------------------------------------------------------------------
  1 -0.1413E+06  0  0.1009E+06  0  0.9986E+05  0  0.3264E+05  0  -5760.    
   ( 21,  1, 89)  ( 19,  1, 89)  ( 19,  1, 89)  ( 19,  1, 89)  ( 17,  1, 88)
  0  -2837.      0  -2521.      1  -2068.    
   ( 22,  1, 87)  ( 22,  1, 87)  ( 22,  1, 87)


 FLOW MODEL IS TRANSIENT
 FLOW MODEL CONTAINS CONSTANT-HEAD CELLS


 MAXIMUM STEPSIZE DURING WHICH ANY PARTICLE CANNOT MOVE MORE THAN ONE CELL
 =  13.21    (WHEN MIN. R.F.=1)  AT K=  17, I=   1, J=  90

 MAXIMUM STEPSIZE WHICH MEETS STABILITY CRITERION OF THE ADVECTION TERM
 (FOR PURE FINITE-DIFFERENCE OPTION, MIXELM=0) 
 =  7.987    (WHEN MIN. R.F.=1)  AT K=  16, I=   1, J=  90


 TOTAL NUMBER OF POINT SOURCES/SINKS PRESENT IN THE FLOW MODEL =    30

[...]
   LAYER,ROW,COL  LAYER,ROW,COL  LAYER,ROW,COL  LAYER,ROW,COL  LAYER,ROW,COL
 ---------------------------------------------------------------------------
  1  0.1386E-01  0  0.5122E-02  0 -0.4504E-02  0  0.9735E-02  0 -0.7051E-02
   ( 15,  1, 86)  ( 11,  1, 40)  (  8,  1, 12)  (  7,  1, 46)  (  7,  1, 48)
  0 -0.2950E-02  0 -0.1342E-02  0 -0.1015E-02  0  0.6094E-03  1  0.1642E-03
   ( 11,  1, 58)  ( 11,  1, 65)  ( 11,  1, 54)  ( 11,  1, 54)  ( 11,  1, 65)

 MAXIMUM RESIDUAL FOR EACH ITERATION (1 INDICATES THE FIRST INNER ITERATION):

    RESIDUAL       RESIDUAL       RESIDUAL       RESIDUAL       RESIDUAL    
   LAYER,ROW,COL  LAYER,ROW,COL  LAYER,ROW,COL  LAYER,ROW,COL  LAYER,ROW,COL
 ---------------------------------------------------------------------------
  1  0.1340E+06  0 -0.9469E+05  0 -0.9400E+05  0 -0.7363E+05  0  -6020.    
   ( 21,  1, 89)  ( 19,  1, 89)  ( 19,  1, 89)  ( 19,  1, 89)  ( 17,  1, 87)
  0   2760.      0   2618.      0   1609.      0   374.9      1   325.6    
   ( 17,  1, 88)  ( 22,  1, 87)  ( 22,  1, 87)  ( 22,  1, 87)  ( 22,  1, 87)


 FLOW MODEL IS TRANSIENT
 FLOW MODEL CONTAINS CONSTANT-HEAD CELLS


 MAXIMUM STEPSIZE DURING WHICH ANY PARTICLE CANNOT MOVE MORE THAN ONE CELL
 =  12.90    (WHEN MIN. R.F.=1)  AT K=  17, I=   1, J=  90

 MAXIMUM STEPSIZE WHICH MEETS STABILITY CRITERION OF THE ADVECTION TERM
 (FOR PURE FINITE-DIFFERENCE OPTION, MIXELM=0) 
 =  8.055    (WHEN MIN. R.F.=1)  AT K=  16, I=   1, J=  90


 TOTAL NUMBER OF POINT SOURCES/SINKS PRESENT IN THE FLOW MODEL =    30

 MAXIMUM STEPSIZE WHICH MEETS STABILITY CRITERION OF THE SINK & SOURCE TERM
 =  12.27    (WHEN MIN. R.F.=1)  AT K=  17, I=   1, J=  91

 MAXIMUM STEPSIZE WHICH MEETS STABILITY CRITERION OF THE DISPERSION TERM
 =  4.047    (WHEN MIN. R.F.=1)  AT K=  17, I=   1, J=  90
     1 CALLS TO GCG PACKAGE FOR TRANSPORT TIME STEP 897 IN FLOW TIME STEP   1 STRESS PERIOD   1
     8 TOTAL ITERATIONS
     1 CALLS TO GCG PACKAGE FOR TRANSPORT TIME STEP 897 IN FLOW TIME STEP   1 STRESS PERIOD   1
     8 TOTAL ITERATIONS
 
 SOLVING FOR HEAD 


     2 CALLS TO PCG ROUTINE FOR TIME STEP   1 IN STRESS PERIOD    1
     8 TOTAL ITERATIONS

 MAXIMUM HEAD CHANGE FOR EACH ITERATION (1 INDICATES THE FIRST INNER ITERATION):

    HEAD CHANGE    HEAD CHANGE    HEAD CHANGE    HEAD CHANGE    HEAD CHANGE 
   LAYER,ROW,COL  LAYER,ROW,COL  LAYER,ROW,COL  LAYER,ROW,COL  LAYER,ROW,COL
 ---------------------------------------------------------------------------
  1 -0.1348E-01  0  0.3857E-02  0  0.2968E-02  0  0.5234E-02  0 -0.7288E-02
   ( 15,  1, 86)  ( 17,  1, 89)  (  8,  1, 12)  ( 11,  1, 51)  ( 11,  1, 51)
  0  0.2280E-02  0  0.8103E-03  1 -0.4471E-03
   ( 11,  1, 51)  ( 11,  1, 67)  ( 11,  1, 43)

 MAXIMUM RESIDUAL FOR EACH ITERATION (1 INDICATES THE FIRST INNER ITERATION):

    RESIDUAL       RESIDUAL       RESIDUAL       RESIDUAL       RESIDUAL    
   LAYER,ROW,COL  LAYER,ROW,COL  LAYER,ROW,COL  LAYER,ROW,COL  LAYER,ROW,COL
 ---------------------------------------------------------------------------
  1 -0.1345E+06  0  0.9544E+05  0  0.9442E+05  0  0.1409E+05  0  -4165.    
   ( 21,  1, 89)  ( 19,  1, 89)  ( 19,  1, 89)  ( 19,  1, 89)  ( 17,  1, 88)
  0  -2852.      0  -2091.      1  -1825.    
   ( 22,  1, 87)  ( 22,  1, 87)  ( 22,  1, 87)


 FLOW MODEL IS TRANSIENT
 FLOW MODEL CONTAINS CONSTANT-HEAD CELLS


 MAXIMUM STEPSIZE DURING WHICH ANY PARTICLE CANNOT MOVE MORE THAN ONE CELL
 =  13.26    (WHEN MIN. R.F.=1)  AT K=  17, I=   1, J=  90

 MAXIMUM STEPSIZE WHICH MEETS STABILITY CRITERION OF THE ADVECTION TERM
 (FOR PURE FINITE-DIFFERENCE OPTION, MIXELM=0) 
 =  8.018    (WHEN MIN. R.F.=1)  AT K=  16, I=   1, J=  90


 TOTAL NUMBER OF POINT SOURCES/SINKS PRESENT IN THE FLOW MODEL =    30

 MAXIMUM STEPSIZE WHICH MEETS STABILITY CRITERION OF THE SINK & SOURCE TERM
 =  12.21    (WHEN MIN. R.F.=1)  AT K=  17, I=   1, J=  91

 MAXIMUM STEPSIZE WHICH MEETS STABILITY CRITERION OF THE DISPERSION TERM
 =  4.383    (WHEN MIN. R.F.=1)  AT K=  17, I=   1, J=  90
     1 CALLS TO GCG PACKAGE FOR TRANSPORT TIME STEP 898 IN FLOW TIME STEP   1 STRESS PERIOD   1
     9 TOTAL ITERATIONS
     1 CALLS TO GCG PACKAGE FOR TRANSPORT TIME STEP 898 IN FLOW TIME STEP   1 STRESS PERIOD   1
     8 TOTAL ITERATIONS
 
 SOLVING FOR HEAD 


     2 CALLS TO PCG ROUTINE FOR TIME STEP   1 IN STRESS PERIOD    1
     9 TOTAL ITERATIONS

 MAXIMUM HEAD CHANGE FOR EACH ITERATION (1 INDICATES THE FIRST INNER ITERATION):

    HEAD CHANGE    HEAD CHANGE    HEAD CHANGE    HEAD CHANGE    HEAD CHANGE 
   LAYER,ROW,COL  LAYER,ROW,COL  LAYER,ROW,COL  LAYER,ROW,COL  LAYER,ROW,COL
 ---------------------------------------------------------------------------
  1  0.1356E-01  0 -0.3880E-02  0 -0.3066E-02  0 -0.9707E-02  0  0.9193E-02
   ( 15,  1, 86)  ( 17,  1, 89)  (  7,  1, 12)  ( 11,  1, 56)  ( 11,  1, 56)
  0  0.2985E-02  0 -0.1124E-02  0 -0.7994E-03  1  0.6436E-03
   ( 11,  1, 35)  ( 11,  1, 35)  ( 11,  1, 70)  ( 11,  1, 70)

 MAXIMUM RESIDUAL FOR EACH ITERATION (1 INDICATES THE FIRST INNER ITERATION):

    RESIDUAL       RESIDUAL       RESIDUAL       RESIDUAL       RESIDUAL    
   LAYER,ROW,COL  LAYER,ROW,COL  LAYER,ROW,COL  LAYER,ROW,COL  LAYER,ROW,COL
 ---------------------------------------------------------------------------
  1  0.1361E+06  0 -0.9650E+05  0 -0.9549E+05  0 -0.4041E+05  0  -5577.    
   ( 21,  1, 89)  ( 19,  1, 89)  ( 19,  1, 89)  ( 19,  1, 89)  ( 17,  1, 87)
  0   2762.      0   2606.      0   1323.      1   1183.    
   ( 22,  1, 87)  ( 22,  1, 87)  ( 22,  1, 87)  ( 22,  1, 87)


 FLOW MODEL IS TRANSIENT
 FLOW MODEL CONTAINS CONSTANT-HEAD CELLS


 MAXIMUM STEPSIZE DURING WHICH ANY PARTICLE CANNOT MOVE MORE THAN ONE CELL
 =  12.90    (WHEN MIN. R.F.=1)  AT K=  17, I=   1, J=  90

 MAXIMUM STEPSIZE WHICH MEETS STABILITY CRITERION OF THE ADVECTION TERM
 (FOR PURE FINITE-DIFFERENCE OPTION, MIXELM=0) 
 =  8.054    (WHEN MIN. R.F.=1)  AT K=  16, I=   1, J=  90


 TOTAL NUMBER OF POINT SOURCES/SINKS PRESENT IN THE FLOW MODEL =    30

 MAXIMUM STEPSIZE WHICH MEETS STABILITY CRITERION OF THE SINK & SOURCE TERM
 =  12.27    (WHEN MIN. R.F.=1)  AT K=  17, I=   1, J=  91

 MAXIMUM STEPSIZE WHICH MEETS STABILITY CRITERION OF THE DISPERSION TERM
 =  4.046    (WHEN MIN. R.F.=1)  AT K=  17, I=   1, J=  90
     1 CALLS TO GCG PACKAGE FOR TRANSPORT TIME STEP 899 IN FLOW TIME STEP   1 STRESS PERIOD   1
     8 TOTAL ITERATIONS
     1 CALLS TO GCG PACKAGE FOR TRANSPORT TIME STEP 899 IN FLOW TIME STEP   1 STRESS PERIOD   1
     8 TOTAL ITERATIONS
 
 SOLVING FOR HEAD 


     2 CALLS TO PCG ROUTINE FOR TIME STEP   1 IN STRESS PERIOD    1
     8 TOTAL ITERATIONS

 MAXIMUM HEAD CHANGE FOR EACH ITERATION (1 INDICATES THE FIRST INNER ITERATION):

    HEAD CHANGE    HEAD CHANGE    HEAD CHANGE    HEAD CHANGE    HEAD CHANGE 
   LAYER,ROW,COL  LAYER,ROW,COL  LAYER,ROW,COL  LAYER,ROW,COL  LAYER,ROW,COL
 ---------------------------------------------------------------------------
  1 -0.1371E-01  0  0.4081E-02  0  0.4205E-02  0 -0.9199E-02  0 -0.9598E-02
   ( 15,  1, 86)  ( 17,  1, 89)  (  8,  1, 12)  ( 11,  1, 67)  ( 11,  1, 54)
  0  0.1487E-02  0  0.6842E-03  1  0.4828E-03
   ( 11,  1, 51)  ( 11,  1, 57)  ( 11,  1, 36)

 MAXIMUM RESIDUAL FOR EACH ITERATION (1 INDICATES THE FIRST INNER ITERATION):

    RESIDUAL       RESIDUAL       RESIDUAL       RESIDUAL       RESIDUAL    
   LAYER,ROW,COL  LAYER,ROW,COL  LAYER,ROW,COL  LAYER,ROW,COL  LAYER,ROW,COL
 ---------------------------------------------------------------------------
  1 -0.1369E+06  0  0.9709E+05  0  0.9633E+05  0  0.2286E+05  0   5242.    
   ( 21,  1, 89)  ( 19,  1, 89)  ( 19,  1, 89)  ( 19,  1, 89)  ( 17,  1, 87)
  0  -2863.      0  -2538.      1  -2122.    
   ( 22,  1, 87)  ( 22,  1, 87)  ( 22,  1, 87)


 FLOW MODEL IS TRANSIENT
 FLOW MODEL CONTAINS CONSTANT-HEAD CELLS


 MAXIMUM STEPSIZE DURING WHICH ANY PARTICLE CANNOT MOVE MORE THAN ONE CELL
 =  13.23    (WHEN MIN. R.F.=1)  AT K=  17, I=   1, J=  90

 MAXIMUM STEPSIZE WHICH MEETS STABILITY CRITERION OF THE ADVECTION TERM
 (FOR PURE FINITE-DIFFERENCE OPTION, MIXELM=0) 
 =  8.007    (WHEN MIN. R.F.=1)  AT K=  16, I=   1, J=  90


 TOTAL NUMBER OF POINT SOURCES/SINKS PRESENT IN THE FLOW MODEL =    30

 MAXIMUM STEPSIZE WHICH MEETS STABILITY CRITERION OF THE SINK & SOURCE TERM
 =  12.18    (WHEN MIN. R.F.=1)  AT K=  17, I=   1, J=  91

 MAXIMUM STEPSIZE WHICH MEETS STABILITY CRITERION OF THE DISPERSION TERM
 =  4.373    (WHEN MIN. R.F.=1)  AT K=  17, I=   1, J=  90
     1 CALLS TO GCG PACKAGE FOR TRANSPORT TIME STEP 900 IN FLOW TIME STEP   1 STRESS PERIOD   1
    10 TOTAL ITERATIONS
  MAXIMUM CONCENTRATION CHANGES FOR EACH ITERATION:
  MAX. CHANGE LAYER,ROW,COL MAX. CHANGE LAYER,ROW,COL MAX. CHANGE LAYER,ROW,COL MAX. CHANGE LAYER,ROW,COL MAX. CHANGE LAYER,ROW,COL
 ------------------------------------------------------------------------------------------------------------------------------------
   0.4875E-01 ( 20,  1, 87)  0.3351E-02 ( 19,  1, 87)  0.2192E-02 ( 18,  1, 87)  0.2175E-03 ( 16,  1, 88)  0.1468E-03 ( 17,  1, 89)
   0.2846E-04 ( 16,  1, 90)  0.1626E-05 ( 21,  1, 78)  0.2353E-05 ( 21,  1, 78)  0.1220E-05 ( 16,  1, 89)  0.1124E-06 ( 17,  1, 89)
     1 CALLS TO GCG PACKAGE FOR TRANSPORT TIME STEP 900 IN FLOW TIME STEP   1 STRESS PERIOD   1
     8 TOTAL ITERATIONS
  MAXIMUM CONCENTRATION CHANGES FOR EACH ITERATION:
  MAX. CHANGE LAYER,ROW,COL MAX. CHANGE LAYER,ROW,COL MAX. CHANGE LAYER,ROW,COL MAX. CHANGE LAYER,ROW,COL MAX. CHANGE LAYER,ROW,COL
 ------------------------------------------------------------------------------------------------------------------------------------
   0.4935E-01 ( 20,  1, 87)  0.3259E-02 ( 19,  1, 87)  0.2195E-02 ( 18,  1, 87)  0.2115E-03 ( 16,  1, 88)  0.1303E-03 ( 17,  1, 89)
   0.3061E-04 ( 16,  1, 90)  0.4319E-05 ( 17,  1, 90)  0.5323E-06 ( 16,  1, 89)
 UBUDSV SAVING "         STORAGE" ON UNIT 50 AT TIME STEP  1, STRESS PERIOD    1
 UBUDSV SAVING "   CONSTANT HEAD" ON UNIT 50 AT TIME STEP  1, STRESS PERIOD    1
 UBUDSV SAVING "FLOW RIGHT FACE " ON UNIT 50 AT TIME STEP  1, STRESS PERIOD    1
 UBUDSV SAVING "FLOW LOWER FACE " ON UNIT 50 AT TIME STEP  1, STRESS PERIOD    1
 UBUDSV SAVING "        RECHARGE" ON UNIT 51 AT TIME STEP  1, STRESS PERIOD    1
 UBUDSV SAVING "            DCDT" ON UNIT 50 AT TIME STEP  1, STRESS PERIOD    1



 >>>>>>>>>>>>>>>>>>>>>>>>>>>>>>>>>>>>>>>>>>>>>>>>>>>>>>>FOR COMPONENT NO. 01<<<<<<<<<<<<<<<<<<<<<<<<<<<<<<<<<<<<<<<<<<<<<<<<<<<<<<<


                                            -------------------------------------------
                                                      TRANSPORT STEP NO.  900
                                            -------------------------------------------

 TOTAL ELAPSED TIME SINCE BEGINNING OF SIMULATION =   45000.00    D   
 .....................................................................

                     CUMMULATIVE MASS BUDGETS AT END OF TRANSPORT STEP  900, TIME STEP    1, STRESS PERIOD    1
                     ------------------------------------------------------------------------------------------

                                                             IN                           OUT
                                                      ----------------             ----------------
                               CONSTANT CONCENTRATION:    0.000000                    0.000000    
                                        CONSTANT HEAD:   0.1780347E+10              -0.1780133E+10
                                                WELLS:    0.000000                    0.000000    
                                             RECHARGE:    0.000000                    0.000000    
                               1ST/0TH ORDER REACTION:    0.000000                    0.000000    
                                MASS STORAGE (SOLUTE):   0.2488779E+09              -0.2490922E+09
                            ---------------------------------------------------------------------------
                                              [TOTAL]:   0.2029227E+10 KG           -0.2029227E+10 KG  

                                                          NET (IN - OUT):   -433.1343    
                                                   DISCREPANCY (PERCENT):  -0.2134479E-04



 >>>>>>>>>>>>>>>>>>>>>>>>>>>>>>>>>>>>>>>>>>>>>>>>>>>>>>>FOR COMPONENT NO. 02<<<<<<<<<<<<<<<<<<<<<<<<<<<<<<<<<<<<<<<<<<<<<<<<<<<<<<<


                                            -------------------------------------------
                                                      TRANSPORT STEP NO.  900
                                            -------------------------------------------

 TOTAL ELAPSED TIME SINCE BEGINNING OF SIMULATION =   45000.00    D   
 .....................................................................

                     CUMMULATIVE MASS BUDGETS AT END OF TRANSPORT STEP  900, TIME STEP    1, STRESS PERIOD    1
                     ------------------------------------------------------------------------------------------

                                                             IN                           OUT
                                                      ----------------             ----------------
                               CONSTANT CONCENTRATION:    0.000000                    0.000000    
                                        CONSTANT HEAD:    0.000000                  -0.3954939E+12
                                                WELLS:    0.000000                    0.000000    
                                             RECHARGE:    0.000000                    0.000000    
                               1ST/0TH ORDER REACTION:   0.7447500E+12                0.000000    
                                MASS STORAGE (SOLUTE):   0.1550193E+12              -0.5042756E+12
                            ---------------------------------------------------------------------------
                                              [TOTAL]:   0.8997714E+12 KG           -0.8997715E+12 KG  

                                                          NET (IN - OUT):   -127523.8    
                                                   DISCREPANCY (PERCENT):  -0.1417291E-04

 HEAD WILL BE SAVED ON UNIT   30 AT END OF TIME STEP   1, STRESS PERIOD    1
1
  MASS BUDGET FOR ENTIRE MODEL AT END OF TIME STEP  1 IN STRESS PERIOD   1
  ------------------------------------------------------------------------------

     CUMULATIVE MASS      M       RATES FOR THIS TIME STEP      M/T
     ------------------                 ------------------------

           IN:                                      IN:
           ---                                      ---
             STORAGE =      157636.2798               STORAGE =           5.1175
       CONSTANT HEAD = 52210926167.1725         CONSTANT HEAD =     1161892.7674
               WELLS =           0.0000                 WELLS =           0.0000
            RECHARGE = 21924000000.0000              RECHARGE =      487200.0000
                DCDT =   172738462.1341                  DCDT =        3878.9765

            TOTAL IN = 74307822265.5864              TOTAL IN =     1652976.8614

          OUT:                                     OUT:
          ----                                     ----
             STORAGE =      153554.6775               STORAGE =           2.2549
       CONSTANT HEAD = 74134766275.0429         CONSTANT HEAD =     1649077.7020
               WELLS =           0.0000                 WELLS =           0.0000
            RECHARGE =           0.0000              RECHARGE =           0.0000
                DCDT =   172879116.1248                  DCDT =        3836.2482

           TOTAL OUT = 74307798945.8451             TOTAL OUT =     1652916.2051

            IN - OUT =       23319.7413              IN - OUT =          60.6563

 PERCENT DISCREPANCY =           0.00     PERCENT DISCREPANCY =           0.00



0


          TIME SUMMARY AT END OF TRANSPORT STEP  900 IN TIME STEP    1 IN STRESS PERIOD   1
                    SECONDS     MINUTES      HOURS       DAYS        YEARS
                    -----------------------------------------------------------
  TRANS STEP LENGTH 4.32000E+06  72000.      1200.0      50.000     0.13689    
   TIME STEP LENGTH 3.88800E+09 6.48000E+07 1.08000E+06  45000.      123.20    
 STRESS PERIOD TIME 3.88800E+09 6.48000E+07 1.08000E+06  45000.      123.20    
         TOTAL TIME 3.88800E+09 6.48000E+07 1.08000E+06  45000.      123.20    
1

 DATA AT HEAD LOCATIONS

        OBSERVATION     OBSER-     SIMUL.                          WEIGHTED
   OBS#    NAME         VATION     EQUIV.    RESIDUAL  WEIGHT**.5  RESIDUAL
                          *          *
      1 p1_head         1.00      0.769      0.231       1.00      0.231    
      2 p2_head         1.00       2.16      -1.16       1.00      -1.16    
      3 p3_head         1.00       2.12      -1.12       1.00      -1.12    
      4 p4_head         1.00     -0.692E-03   1.00       1.00       1.00    
      5 p5_head         1.00       2.43      -1.43       1.00      -1.43    
      6 p6_head         1.00       1.98     -0.978       1.00     -0.978    
      7 p7_head         1.00       3.16      -2.16       1.00      -2.16    

 * THE OBSERVATION (AND CORRESPONDING SIMULATED EQUIVALENT) IS HEAD OR TEMPORAL
   CHANGE IN HEAD, AS SPECIFIED IN THE "HOB" INPUT FILE.  NEGATIVE TEMPORAL
   CHANGES INDICATE DRAWDOWN.

 STATISTICS FOR HEAD RESIDUALS :
 MAXIMUM WEIGHTED RESIDUAL  :  1.00     OBS#      4
 MINIMUM WEIGHTED RESIDUAL  : -2.16     OBS#      7
 AVERAGE WEIGHTED RESIDUAL  :-0.803    
 # RESIDUALS >= 0. :      2
 # RESIDUALS < 0.  :      5
 NUMBER OF RUNS  :    4  IN    7 OBSERVATIONS

 SUM OF SQUARED WEIGHTED RESIDUALS (HEADS ONLY)   11.339    

 SUM OF SQUARED WEIGHTED RESIDUALS (ALL DEPENDENT VARIABLES)   11.339    

 STATISTICS FOR ALL RESIDUALS :
 AVERAGE WEIGHTED RESIDUAL  :-0.803E+00
 # RESIDUALS >= 0. :      2
 # RESIDUALS < 0.  :      5
 NUMBER OF RUNS  :    4  IN    7 OBSERVATIONS

 THE NUMBER OF RUNS EQUALS THE EXPECTED NUMBER OF RUNS

 ORDERED DEPENDENT-VARIABLE WEIGHTED RESIDUALS
 NUMBER OF RESIDUALS INCLUDED:         7
     -2.16      -1.43      -1.16      -1.12     -0.978      0.231       1.00    

 CORRELATION BETWEEN ORDERED WEIGHTED RESIDUALS AND NORMAL ORDER STATISTICS
 FOR OBSERVATIONS =    0.912    

 --------------------------------------------------------------------------
 COMMENTS ON THE INTERPRETATION OF THE CORRELATION BETWEEN
 WEIGHTED RESIDUALS AND NORMAL ORDER STATISTICS:

 Generally, IF the reported CORRELATION is LESS than the critical value,
 at the selected significance level (usually 5 or 10%), the hypothesis
 that the weighted residuals are INDEPENDENT AND NORMALLY DISTRIBUTED
 would be REJECTED.  HOWEVER, in this case, conditions are outside of
 the range of published critical values as discussed below.

 The sum of the number of observations and prior information items is     7
 which is less than 35, the minimum value for which critical values are
 published.  Therefore, the critical values for the 5 and 10% significance
 levels are less than 0.943 and 0.952, respectively.

 CORRELATIONS GREATER than these critical values indicate that, probably, the 
 weighted residuals ARE INDEPENDENT AND NORMALLY DISTRIBUTED.

 Correlations LESS than these critical values MAY BE ACCEPTABLE, and
 rejection of the hypothesis is not necessarily warranted.

 The Kolmogorov-Smirnov test can be used to further evaluate the residuals.
 --------------------------------------------------------------------------

