
 ========== TRANSLATION TO MODFLOW2000 ==========



 >>>>> Testing Layer Elevations <<<<<
     0 ERRORS,   0 WARNINGS

 >>>>> Translating LAYER-PROPERTY-FLOW Package <<<<<

 Warning -- When using the MODFLOW2000 LPF Package, be sure that S in the GV database represents Specific Storage
     This is different from the MODFLOW BCF Package where Storage is defined.

 >>>>> Translating RECHARGE Package <<<<<


 >>>>> Translating ZONE Package <<<<<


 >>>>> Translating BASIC Package <<<<<


 >>>>> Testing Layer Elevations <<<<<
     0 ERRORS,   0 WARNINGS     0 ERRORS,   0 WARNINGS

 >>>>> Translating Discretization Package <<<<<
     0 ERRORS,   0 WARNINGS

 ========== TRANSLATION COMPLETE! ==========