
 ========== GV TRANSLATION TO MT3D ==========



 >>>>> Testing Layer Elevations <<<<<
     0 ERRORS,   0 WARNINGS

 >>>>> Translating BASIC Package <<<<<
     0 ERRORS,   0 WARNINGS

 >>>>> Translating ADVECTION Package <<<<<


 >>>>> Translating DISPERSION Package <<<<<


 >>>>> Translating SOURCE/SINK Package <<<<<


 >>>>> Translating MT3DMS GCG Solver Package <<<<<


 ========== TRANSLATION COMPLETE! ==========