                                  SEAWAT Version 4
      U.S. GEOLOGICAL SURVEY MODULAR FINITE-DIFFERENCE GROUND-WATER FLOW MODEL
                           VERSION 4.00.03 09/21/2009


 This model run produced both GLOBAL and LIST files.  This is the LIST file.

  ----- 
 | M T | Conversion from Groundwater Vistas                                              
 | 3 D | MT3D Model                                                                      
  ----- 
 THE TRANSPORT MODEL CONSISTS OF    23 LAYER(S)    1 ROW(S)  100 COLUMN(S)
 NUMBER OF STRESS PERIOD(S) FOR TRANSPORT SIMULATION =    1
 NUMBER OF ALL COMPONENTS INCLUDED IN SIMULATION =    1
 NUMBER OF MOBILE COMPONENTS INCLUDED IN SIMULATION =    1
 UNIT FOR TIME IS D   ;  UNIT FOR LENGTH IS M   ;  UNIT FOR MASS IS KG  
 OPTIONAL PACKAGES INCLUDED IN CURRENT SIMULATION:
  o ADV   ON UNIT282
  o DSP   ON UNIT283
  o SSM   ON UNIT284
  o GCG   ON UNIT286


 VDF -- VARIABLE DENSITY FLOW, VERSION 1, 2/13/2004
         INPUT READ FROM UNIT280

 COUPLING BETWEEN FLOW AND TRANSPORT IS EXPLICIT
 VARIABLE-DENSITY WATER-TABLE CORRECTIONS NOT ADDED
 MT3DMS SPECIES USED IN EQUATION OF STATE FOR FLUID DENSITY:          1
 AN UPSTREAM-WEIGHTED ALGORITHM IS USED TO CALCULATE FLUID DENSITY TERMS THAT CONSERVE MASS
  1000.     REFERENCE DENSITY
 0.7000     DENSITY SLOPE FOR EQUATION OF STATE
 DENSITY EQUATION OF STATE
 RHO =     1000.00    
  + 0.7000     * ( CONC(   1) -  0.000     )



 FIRSTDT SPECIFIED BY USER IN THE VDF FILE IS:   0.1000000E-02
 BTN5 -- BASIC TRANSPORT PACKAGE, VERSION 5, OCTOBER 2006, INPUT READ FROM UNIT281
      34802 ELEMENTS OF THE  X ARRAY USED BY THE BTN PACKAGE
       2323 ELEMENTS OF THE IX ARRAY USED BY THE BTN PACKAGE

 FLOW MODEL IS TRANSIENT

 ADV5 -- ADVECTION PACKAGE, VERSION 5, FEBRUARY 2005, INPUT READ FROM UNIT282
 ADVECTION IS SOLVED WITH THE ULTIMATE SCHEME
 COURANT NUMBER ALLOWED IN SOLVING THE ADVECTION TERM = 0.500    
          0 ELEMENTS OF THE  X ARRAY USED BY THE ADV PACKAGE
          0 ELEMENTS OF THE IX ARRAY USED BY THE ADV PACKAGE

 DSP5 -- DISPERSION PACKAGE, VERSION 5, OCTOBER 2006, INPUT READ FROM UNIT283
      25346 ELEMENTS OF THE  X ARRAY USED BY THE DSP PACKAGE
          0 ELEMENTS OF THE IX ARRAY USED BY THE DSP PACKAGE

 SSM5 -- SINK & SOURCE MIXING PACKAGE, VERSION 5, OCTOBER 2006, INPUT READ FROM UNIT284
 HEADER LINE OF THE SSM PACKAGE INPUT FILE:
  F F T F F F                                                                                                                                                                                            
 MAJOR STRESS COMPONENTS PRESENT IN THE FLOW MODEL:
  o RECHARGE
 MAXIMUM NUMBER OF POINT SINKS/SOURCES =      30
        590 ELEMENTS OF THE  X ARRAY USED BY THE SSM PACKAGE
        100 ELEMENTS OF THE IX ARRAY BY THE SSM PACKAGE

 GCG5 -- GENERALIZED CONJUGATE GRADIENT SOLVER PACKAGE, VERSION 5, FEBRUARY 2005 INPUT READ FROM UNIT286
 MAXIMUM OF    1 OUTER ITERATIONS
        AND   50 INNER ITERATIONS ALLOWED FOR CLOSURE
 THE PRECONDITIONING TYPE SELECTED IS SSOR.
 DISPERSION CROSS TERMS LUMPED INTO RIGHT-HAND-SIDE
      34550 ELEMENTS OF THE  X ARRAY USED BY THE GCG PACKAGE
        150 ELEMENTS OF THE IX ARRAY USED BY THE GCG PACKAGE

 
 # MODFLOW2000 Basic Package                                                     
 #MODFLOW Data Set Created by Groundwater Vistas                                 
 #
   23 LAYERS         1 ROWS       100 COLUMNS
    1 STRESS PERIOD(S) IN SIMULATION

 BAS6 -- BASIC PACKAGE, VERSION 6, 1/11/2000 INPUT READ FROM UNIT    1
        115 ELEMENTS IN IR ARRAY ARE USED BY BAS

 RCH6 -- RECHARGE PACKAGE, VERSION 6, 1/11/2000 INPUT READ FROM UNIT   18
 # MODFLOW2000 Recharge Package
 No named parameters
 OPTION 3 -- RECHARGE TO HIGHEST ACTIVE NODE IN EACH VERTICAL COLUMN
 CELL-BY-CELL FLOWS WILL BE SAVED ON UNIT   51
        100 ELEMENTS IN RX ARRAY ARE USED BY RCH
        100 ELEMENTS IN IR ARRAY ARE USED BY RCH

        100  ELEMENTS OF RX ARRAY USED OUT OF        100
          0  ELEMENTS OF RZ ARRAY USED OUT OF          1
        215  ELEMENTS OF IR ARRAY USED OUT OF        215
1
 # MODFLOW2000 Basic Package                                                     
 #MODFLOW Data Set Created by Groundwater Vistas                                 



                     BOUNDARY ARRAY FOR LAYER   1
 READING ON UNIT    1 WITH FORMAT: (25I3)              



                     BOUNDARY ARRAY FOR LAYER   2
 READING ON UNIT    1 WITH FORMAT: (25I3)              



                     BOUNDARY ARRAY FOR LAYER   3
 READING ON UNIT    1 WITH FORMAT: (25I3)              



                     BOUNDARY ARRAY FOR LAYER   4
 READING ON UNIT    1 WITH FORMAT: (25I3)              



                     BOUNDARY ARRAY FOR LAYER   5
 READING ON UNIT    1 WITH FORMAT: (25I3)              



                     BOUNDARY ARRAY FOR LAYER   6
 READING ON UNIT    1 WITH FORMAT: (25I3)              



                     BOUNDARY ARRAY FOR LAYER   7
 READING ON UNIT    1 WITH FORMAT: (25I3)              



                     BOUNDARY ARRAY FOR LAYER   8
 READING ON UNIT    1 WITH FORMAT: (25I3)              



                     BOUNDARY ARRAY FOR LAYER   9
 READING ON UNIT    1 WITH FORMAT: (25I3)              



                     BOUNDARY ARRAY FOR LAYER  10
 READING ON UNIT    1 WITH FORMAT: (25I3)              



                     BOUNDARY ARRAY FOR LAYER  11
 READING ON UNIT    1 WITH FORMAT: (25I3)              



                     BOUNDARY ARRAY FOR LAYER  12
 READING ON UNIT    1 WITH FORMAT: (25I3)              



                     BOUNDARY ARRAY FOR LAYER  13
 READING ON UNIT    1 WITH FORMAT: (25I3)              



                     BOUNDARY ARRAY FOR LAYER  14
 READING ON UNIT    1 WITH FORMAT: (25I3)              



                     BOUNDARY ARRAY FOR LAYER  15
 READING ON UNIT    1 WITH FORMAT: (25I3)              



                     BOUNDARY ARRAY FOR LAYER  16
 READING ON UNIT    1 WITH FORMAT: (25I3)              



                     BOUNDARY ARRAY FOR LAYER  17
 READING ON UNIT    1 WITH FORMAT: (25I3)              



                     BOUNDARY ARRAY FOR LAYER  18
 READING ON UNIT    1 WITH FORMAT: (25I3)              



                     BOUNDARY ARRAY FOR LAYER  19
 READING ON UNIT    1 WITH FORMAT: (25I3)              



                     BOUNDARY ARRAY FOR LAYER  20
 READING ON UNIT    1 WITH FORMAT: (25I3)              



                     BOUNDARY ARRAY FOR LAYER  21
 READING ON UNIT    1 WITH FORMAT: (25I3)              



                     BOUNDARY ARRAY FOR LAYER  22
 READING ON UNIT    1 WITH FORMAT: (25I3)              



                     BOUNDARY ARRAY FOR LAYER  23
 READING ON UNIT    1 WITH FORMAT: (25I3)              

 AQUIFER HEAD WILL BE SET TO  999.00     AT ALL NO-FLOW NODES (IBOUND=0).

             INITIAL HEAD =   0.00000     FOR LAYER   1

             INITIAL HEAD =   0.00000     FOR LAYER   2

             INITIAL HEAD =   0.00000     FOR LAYER   3

             INITIAL HEAD =   0.00000     FOR LAYER   4

             INITIAL HEAD =   0.00000     FOR LAYER   5

             INITIAL HEAD =   0.00000     FOR LAYER   6

             INITIAL HEAD =   0.00000     FOR LAYER   7

             INITIAL HEAD =   0.00000     FOR LAYER   8

             INITIAL HEAD =   0.00000     FOR LAYER   9

             INITIAL HEAD =   0.00000     FOR LAYER  10

             INITIAL HEAD =   0.00000     FOR LAYER  11

             INITIAL HEAD =   0.00000     FOR LAYER  12

             INITIAL HEAD =   0.00000     FOR LAYER  13

             INITIAL HEAD =   0.00000     FOR LAYER  14

             INITIAL HEAD =   0.00000     FOR LAYER  15

             INITIAL HEAD =   0.00000     FOR LAYER  16

             INITIAL HEAD =   0.00000     FOR LAYER  17

             INITIAL HEAD =   0.00000     FOR LAYER  18

             INITIAL HEAD =   0.00000     FOR LAYER  19

             INITIAL HEAD =   0.00000     FOR LAYER  20

             INITIAL HEAD =   0.00000     FOR LAYER  21

             INITIAL HEAD =   0.00000     FOR LAYER  22

             INITIAL HEAD =   0.00000     FOR LAYER  23

 OUTPUT CONTROL IS SPECIFIED EVERY TIME STEP
 HEAD PRINT FORMAT CODE IS   0    DRAWDOWN PRINT FORMAT CODE IS   0
 HEADS WILL BE SAVED ON UNIT   30    DRAWDOWNS WILL BE SAVED ON UNIT    0
 LAYER NUMBER  AQUIFER TYPE
 ------------  ------------
       1            0
       2            0
       3            0
       4            0
       5            0
       6            0
       7            0
       8            0
       9            0
      10            0
      11            0
      12            0
      13            0
      14            0
      15            0
      16            0
      17            0
      18            0
      19            0
      20            0
      21            0
      22            0
      23            0
                                       WIDTH ALONG ROWS (DELR)  =   100.0000    
                                       WIDTH ALONG COLS (DELC)  =   100.0000    
                                       TOP ELEV. OF 1ST LAYER   =   2.500000    
                                       CELL THICKNESS (DZ)      =   5.000000     FOR LAYER  1
                                       CELL THICKNESS (DZ)      =   5.000000     FOR LAYER  2
                                       CELL THICKNESS (DZ)      =   5.000000     FOR LAYER  3
                                       CELL THICKNESS (DZ)      =   5.000000     FOR LAYER  4
                                       CELL THICKNESS (DZ)      =   5.000000     FOR LAYER  5
                                       CELL THICKNESS (DZ)      =   5.000000     FOR LAYER  6
                                       CELL THICKNESS (DZ)      =   5.000000     FOR LAYER  7
                                       CELL THICKNESS (DZ)      =   5.000000     FOR LAYER  8
                                       CELL THICKNESS (DZ)      =   5.000000     FOR LAYER  9
                                       CELL THICKNESS (DZ)      =   5.000000     FOR LAYER 10
                                       CELL THICKNESS (DZ)      =   5.000000     FOR LAYER 11
                                       CELL THICKNESS (DZ)      =   5.000000     FOR LAYER 12
                                       CELL THICKNESS (DZ)      =   5.000000     FOR LAYER 13
                                       CELL THICKNESS (DZ)      =   5.000000     FOR LAYER 14
                                       CELL THICKNESS (DZ)      =   5.000000     FOR LAYER 15
                                       CELL THICKNESS (DZ)      =   5.000000     FOR LAYER 16
                                       CELL THICKNESS (DZ)      =   5.000000     FOR LAYER 17
                                       CELL THICKNESS (DZ)      =   5.000000     FOR LAYER 18
                                       CELL THICKNESS (DZ)      =   5.000000     FOR LAYER 19
                                       CELL THICKNESS (DZ)      =   5.000000     FOR LAYER 20
                                       CELL THICKNESS (DZ)      =   5.000000     FOR LAYER 21
                                       CELL THICKNESS (DZ)      =   5.000000     FOR LAYER 22
                                       CELL THICKNESS (DZ)      =   5.000000     FOR LAYER 23
                                       POROSITY                 =  0.2000000     FOR LAYER  1
                                       POROSITY                 =  0.2000000     FOR LAYER  2
                                       POROSITY                 =  0.2000000     FOR LAYER  3
                                       POROSITY                 =  0.2000000     FOR LAYER  4
                                       POROSITY                 =  0.2000000     FOR LAYER  5
                                       POROSITY                 =  0.2000000     FOR LAYER  6
                                       POROSITY                 =  0.2000000     FOR LAYER  7
                                       POROSITY                 =  0.2000000     FOR LAYER  8
                                       POROSITY                 =  0.2000000     FOR LAYER  9
                                       POROSITY                 =  0.2000000     FOR LAYER 10
                                       POROSITY                 =  0.2000000     FOR LAYER 11
                                       POROSITY                 =  0.2000000     FOR LAYER 12
                                       POROSITY                 =  0.2000000     FOR LAYER 13
                                       POROSITY                 =  0.2000000     FOR LAYER 14
                                       POROSITY                 =  0.2000000     FOR LAYER 15
                                       POROSITY                 =  0.2000000     FOR LAYER 16
                                       POROSITY                 =  0.2000000     FOR LAYER 17
                                       POROSITY                 =  0.2000000     FOR LAYER 18
                                       POROSITY                 =  0.2000000     FOR LAYER 19
                                       POROSITY                 =  0.2000000     FOR LAYER 20
                                       POROSITY                 =  0.2000000     FOR LAYER 21
                                       POROSITY                 =  0.2000000     FOR LAYER 22
                                       POROSITY                 =  0.2000000     FOR LAYER 23

                     CONCN. BOUNDARY ARRAY    FOR LAYER  1 READ ON UNIT281 USING FORMAT: "(25I3)              "
                     ------------------------------------------------------------------------------------------

                1           2           3           4           5           6           7           8           9          10
               11          12          13          14          15          16          17          18          19          20
               21          22          23          24          25          26          27          28          29          30
               31          32          33          34          35          36          37          38          39          40
               41          42          43          44          45          46          47          48          49          50
               51          52          53          54          55          56          57          58          59          60
               61          62          63          64          65          66          67          68          69          70
               71          72          73          74          75          76          77          78          79          80
               81          82          83          84          85          86          87          88          89          90
               91          92          93          94          95          96          97          98          99         100
 ............................................................................................................................
   1            1           1           1           1           1           1           1           1           1           1
                1           1           1           1           1           1           1           1           1           1
                1           1           1           1           1           1           1           1           1           1
                1           1           1           1           1           1           1           1           1           1
                1           1           1           1           1           1           1           1           1           1
                1           1           1           1           1           1           1           1           1           1
                1           1           1           1           1           1           1           1           1           1
                1           0           0           0           0           0           0           0           0           0
                0           0           0           0           0           0           0           0           0           0
                0           0           0           0           0           0           0           0           0           0

                     CONCN. BOUNDARY ARRAY    FOR LAYER  2 READ ON UNIT281 USING FORMAT: "(25I3)              "
                     ------------------------------------------------------------------------------------------

                1           2           3           4           5           6           7           8           9          10
               11          12          13          14          15          16          17          18          19          20
               21          22          23          24          25          26          27          28          29          30
               31          32          33          34          35          36          37          38          39          40
               41          42          43          44          45          46          47          48          49          50
               51          52          53          54          55          56          57          58          59          60
               61          62          63          64          65          66          67          68          69          70
               71          72          73          74          75          76          77          78          79          80
               81          82          83          84          85          86          87          88          89          90
               91          92          93          94          95          96          97          98          99         100
 ............................................................................................................................
   1            1           1           1           1           1           1           1           1           1           1
                1           1           1           1           1           1           1           1           1           1
                1           1           1           1           1           1           1           1           1           1
                1           1           1           1           1           1           1           1           1           1
                1           1           1           1           1           1           1           1           1           1
                1           1           1           1           1           1           1           1           1           1
                1           1           1           1           1           1           1           1           1           1
                1           1           0           0           0           0           0           0           0           0
                0           0           0           0           0           0           0           0           0           0
                0           0           0           0           0           0           0           0           0           0

                     CONCN. BOUNDARY ARRAY    FOR LAYER  3 READ ON UNIT281 USING FORMAT: "(25I3)              "
                     ------------------------------------------------------------------------------------------

                1           2           3           4           5           6           7           8           9          10
               11          12          13          14          15          16          17          18          19          20
               21          22          23          24          25          26          27          28          29          30
               31          32          33          34          35          36          37          38          39          40
               41          42          43          44          45          46          47          48          49          50
               51          52          53          54          55          56          57          58          59          60
               61          62          63          64          65          66          67          68          69          70
               71          72          73          74          75          76          77          78          79          80
               81          82          83          84          85          86          87          88          89          90
               91          92          93          94          95          96          97          98          99         100
 ............................................................................................................................
   1            1           1           1           1           1           1           1           1           1           1
                1           1           1           1           1           1           1           1           1           1
                1           1           1           1           1           1           1           1           1           1
                1           1           1           1           1           1           1           1           1           1
                1           1           1           1           1           1           1           1           1           1
                1           1           1           1           1           1           1           1           1           1
                1           1           1           1           1           1           1           1           1           1
                1           1           1           1           0           0           0           0           0           0
                0           0           0           0           0           0           0           0           0           0
                0           0           0           0           0           0           0           0           0           0

                     CONCN. BOUNDARY ARRAY    FOR LAYER  4 READ ON UNIT281 USING FORMAT: "(25I3)              "
                     ------------------------------------------------------------------------------------------

                1           2           3           4           5           6           7           8           9          10
               11          12          13          14          15          16          17          18          19          20
               21          22          23          24          25          26          27          28          29          30
               31          32          33          34          35          36          37          38          39          40
               41          42          43          44          45          46          47          48          49          50
               51          52          53          54          55          56          57          58          59          60
               61          62          63          64          65          66          67          68          69          70
               71          72          73          74          75          76          77          78          79          80
               81          82          83          84          85          86          87          88          89          90
               91          92          93          94          95          96          97          98          99         100
 ............................................................................................................................
   1            1           1           1           1           1           1           1           1           1           1
                1           1           1           1           1           1           1           1           1           1
                1           1           1           1           1           1           1           1           1           1
                1           1           1           1           1           1           1           1           1           1
                1           1           1           1           1           1           1           1           1           1
                1           1           1           1           1           1           1           1           1           1
                1           1           1           1           1           1           1           1           1           1
                1           1           1           1           1           0           0           0           0           0
                0           0           0           0           0           0           0           0           0           0
                0           0           0           0           0           0           0           0           0           0

                     CONCN. BOUNDARY ARRAY    FOR LAYER  5 READ ON UNIT281 USING FORMAT: "(25I3)              "
                     ------------------------------------------------------------------------------------------

                1           2           3           4           5           6           7           8           9          10
               11          12          13          14          15          16          17          18          19          20
               21          22          23          24          25          26          27          28          29          30
               31          32          33          34          35          36          37          38          39          40
               41          42          43          44          45          46          47          48          49          50
               51          52          53          54          55          56          57          58          59          60
               61          62          63          64          65          66          67          68          69          70
               71          72          73          74          75          76          77          78          79          80
               81          82          83          84          85          86          87          88          89          90
               91          92          93          94          95          96          97          98          99         100
 ............................................................................................................................
   1            1           1           1           1           1           1           1           1           1           1
                1           1           1           1           1           1           1           1           1           1
                1           1           1           1           1           1           1           1           1           1
                1           1           1           1           1           1           1           1           1           1
                1           1           1           1           1           1           1           1           1           1
                1           1           1           1           1           1           1           1           1           1
                1           1           1           1           1           1           1           1           1           1
                1           1           1           1           1           1           0           0           0           0
                0           0           0           0           0           0           0           0           0           0
                0           0           0           0           0           0           0           0           0           0

                     CONCN. BOUNDARY ARRAY    FOR LAYER  6 READ ON UNIT281 USING FORMAT: "(25I3)              "
                     ------------------------------------------------------------------------------------------

                1           2           3           4           5           6           7           8           9          10
               11          12          13          14          15          16          17          18          19          20
               21          22          23          24          25          26          27          28          29          30
               31          32          33          34          35          36          37          38          39          40
               41          42          43          44          45          46          47          48          49          50
               51          52          53          54          55          56          57          58          59          60
               61          62          63          64          65          66          67          68          69          70
               71          72          73          74          75          76          77          78          79          80
               81          82          83          84          85          86          87          88          89          90
               91          92          93          94          95          96          97          98          99         100
 ............................................................................................................................
   1            1           1           1           1           1           1           1           1           1           1
                1           1           1           1           1           1           1           1           1           1
                1           1           1           1           1           1           1           1           1           1
                1           1           1           1           1           1           1           1           1           1
                1           1           1           1           1           1           1           1           1           1
                1           1           1           1           1           1           1           1           1           1
                1           1           1           1           1           1           1           1           1           1
                1           1           1           1           1           1           1           1           0           0
                0           0           0           0           0           0           0           0           0           0
                0           0           0           0           0           0           0           0           0           0

                     CONCN. BOUNDARY ARRAY    FOR LAYER  7 READ ON UNIT281 USING FORMAT: "(25I3)              "
                     ------------------------------------------------------------------------------------------

                1           2           3           4           5           6           7           8           9          10
               11          12          13          14          15          16          17          18          19          20
               21          22          23          24          25          26          27          28          29          30
               31          32          33          34          35          36          37          38          39          40
               41          42          43          44          45          46          47          48          49          50
               51          52          53          54          55          56          57          58          59          60
               61          62          63          64          65          66          67          68          69          70
               71          72          73          74          75          76          77          78          79          80
               81          82          83          84          85          86          87          88          89          90
               91          92          93          94          95          96          97          98          99         100
 ............................................................................................................................
   1            1           1           1           1           1           1           1           1           1           1
                1           1           1           1           1           1           1           1           1           1
                1           1           1           1           1           1           1           1           1           1
                1           1           1           1           1           1           1           1           1           1
                1           1           1           1           1           1           1           1           1           1
                1           1           1           1           1           1           1           1           1           1
                1           1           1           1           1           1           1           1           1           1
                1           1           1           1           1           1           1           1           1           0
                0           0           0           0           0           0           0           0           0           0
                0           0           0           0           0           0           0           0           0           0

                     CONCN. BOUNDARY ARRAY    FOR LAYER  8 READ ON UNIT281 USING FORMAT: "(25I3)              "
                     ------------------------------------------------------------------------------------------

                1           2           3           4           5           6           7           8           9          10
               11          12          13          14          15          16          17          18          19          20
               21          22          23          24          25          26          27          28          29          30
               31          32          33          34          35          36          37          38          39          40
               41          42          43          44          45          46          47          48          49          50
               51          52          53          54          55          56          57          58          59          60
               61          62          63          64          65          66          67          68          69          70
               71          72          73          74          75          76          77          78          79          80
               81          82          83          84          85          86          87          88          89          90
               91          92          93          94          95          96          97          98          99         100
 ............................................................................................................................
   1            1           1           1           1           1           1           1           1           1           1
                1           1           1           1           1           1           1           1           1           1
                1           1           1           1           1           1           1           1           1           1
                1           1           1           1           1           1           1           1           1           1
                1           1           1           1           1           1           1           1           1           1
                1           1           1           1           1           1           1           1           1           1
                1           1           1           1           1           1           1           1           1           1
                1           1           1           1           1           1           1           1           1           1
                0           0           0           0           0           0           0           0           0           0
                0           0           0           0           0           0           0           0           0           0

                     CONCN. BOUNDARY ARRAY    FOR LAYER  9 READ ON UNIT281 USING FORMAT: "(25I3)              "
                     ------------------------------------------------------------------------------------------

                1           2           3           4           5           6           7           8           9          10
               11          12          13          14          15          16          17          18          19          20
               21          22          23          24          25          26          27          28          29          30
               31          32          33          34          35          36          37          38          39          40
               41          42          43          44          45          46          47          48          49          50
               51          52          53          54          55          56          57          58          59          60
               61          62          63          64          65          66          67          68          69          70
               71          72          73          74          75          76          77          78          79          80
               81          82          83          84          85          86          87          88          89          90
               91          92          93          94          95          96          97          98          99         100
 ............................................................................................................................
   1            1           1           1           1           1           1           1           1           1           1
                1           1           1           1           1           1           1           1           1           1
                1           1           1           1           1           1           1           1           1           1
                1           1           1           1           1           1           1           1           1           1
                1           1           1           1           1           1           1           1           1           1
                1           1           1           1           1           1           1           1           1           1
                1           1           1           1           1           1           1           1           1           1
                1           1           1           1           1           1           1           1           1           1
                1           0           0           0           0           0           0           0           0           0
                0           0           0           0           0           0           0           0           0           0

                     CONCN. BOUNDARY ARRAY    FOR LAYER 10 READ ON UNIT281 USING FORMAT: "(25I3)              "
                     ------------------------------------------------------------------------------------------

                1           2           3           4           5           6           7           8           9          10
               11          12          13          14          15          16          17          18          19          20
               21          22          23          24          25          26          27          28          29          30
               31          32          33          34          35          36          37          38          39          40
               41          42          43          44          45          46          47          48          49          50
               51          52          53          54          55          56          57          58          59          60
               61          62          63          64          65          66          67          68          69          70
               71          72          73          74          75          76          77          78          79          80
               81          82          83          84          85          86          87          88          89          90
               91          92          93          94          95          96          97          98          99         100
 ............................................................................................................................
   1            1           1           1           1           1           1           1           1           1           1
                1           1           1           1           1           1           1           1           1           1
                1           1           1           1           1           1           1           1           1           1
                1           1           1           1           1           1           1           1           1           1
                1           1           1           1           1           1           1           1           1           1
                1           1           1           1           1           1           1           1           1           1
                1           1           1           1           1           1           1           1           1           1
                1           1           1           1           1           1           1           1           1           1
                1           1           0           0           0           0           0           0           0           0
                0           0           0           0           0           0           0           0           0           0

                     CONCN. BOUNDARY ARRAY    FOR LAYER 11 READ ON UNIT281 USING FORMAT: "(25I3)              "
                     ------------------------------------------------------------------------------------------

                1           2           3           4           5           6           7           8           9          10
               11          12          13          14          15          16          17          18          19          20
               21          22          23          24          25          26          27          28          29          30
               31          32          33          34          35          36          37          38          39          40
               41          42          43          44          45          46          47          48          49          50
               51          52          53          54          55          56          57          58          59          60
               61          62          63          64          65          66          67          68          69          70
               71          72          73          74          75          76          77          78          79          80
               81          82          83          84          85          86          87          88          89          90
               91          92          93          94          95          96          97          98          99         100
 ............................................................................................................................
   1            1           1           1           1           1           1           1           1           1           1
                1           1           1           1           1           1           1           1           1           1
                1           1           1           1           1           1           1           1           1           1
                1           1           1           1           1           1           1           1           1           1
                1           1           1           1           1           1           1           1           1           1
                1           1           1           1           1           1           1           1           1           1
                1           1           1           1           1           1           1           1           1           1
                1           1           1           1           1           1           1           1           1           1
                1           1           1           1           0           0           0           0           0           0
                0           0           0           0           0           0           0           0           0           0

                     CONCN. BOUNDARY ARRAY    FOR LAYER 12 READ ON UNIT281 USING FORMAT: "(25I3)              "
                     ------------------------------------------------------------------------------------------

                1           2           3           4           5           6           7           8           9          10
               11          12          13          14          15          16          17          18          19          20
               21          22          23          24          25          26          27          28          29          30
               31          32          33          34          35          36          37          38          39          40
               41          42          43          44          45          46          47          48          49          50
               51          52          53          54          55          56          57          58          59          60
               61          62          63          64          65          66          67          68          69          70
               71          72          73          74          75          76          77          78          79          80
               81          82          83          84          85          86          87          88          89          90
               91          92          93          94          95          96          97          98          99         100
 ............................................................................................................................
   1            1           1           1           1           1           1           1           1           1           1
                1           1           1           1           1           1           1           1           1           1
                1           1           1           1           1           1           1           1           1           1
                1           1           1           1           1           1           1           1           1           1
                1           1           1           1           1           1           1           1           1           1
                1           1           1           1           1           1           1           1           1           1
                1           1           1           1           1           1           1           1           1           1
                1           1           1           1           1           1           1           1           1           1
                1           1           1           1           1           0           0           0           0           0
                0           0           0           0           0           0           0           0           0           0

                     CONCN. BOUNDARY ARRAY    FOR LAYER 13 READ ON UNIT281 USING FORMAT: "(25I3)              "
                     ------------------------------------------------------------------------------------------

                1           2           3           4           5           6           7           8           9          10
               11          12          13          14          15          16          17          18          19          20
               21          22          23          24          25          26          27          28          29          30
               31          32          33          34          35          36          37          38          39          40
               41          42          43          44          45          46          47          48          49          50
               51          52          53          54          55          56          57          58          59          60
               61          62          63          64          65          66          67          68          69          70
               71          72          73          74          75          76          77          78          79          80
               81          82          83          84          85          86          87          88          89          90
               91          92          93          94          95          96          97          98          99         100
 ............................................................................................................................
   1            1           1           1           1           1           1           1           1           1           1
                1           1           1           1           1           1           1           1           1           1
                1           1           1           1           1           1           1           1           1           1
                1           1           1           1           1           1           1           1           1           1
                1           1           1           1           1           1           1           1           1           1
                1           1           1           1           1           1           1           1           1           1
                1           1           1           1           1           1           1           1           1           1
                1           1           1           1           1           1           1           1           1           1
                1           1           1           1           1           1           0           0           0           0
                0           0           0           0           0           0           0           0           0           0

                     CONCN. BOUNDARY ARRAY    FOR LAYER 14 READ ON UNIT281 USING FORMAT: "(25I3)              "
                     ------------------------------------------------------------------------------------------

                1           2           3           4           5           6           7           8           9          10
               11          12          13          14          15          16          17          18          19          20
               21          22          23          24          25          26          27          28          29          30
               31          32          33          34          35          36          37          38          39          40
               41          42          43          44          45          46          47          48          49          50
               51          52          53          54          55          56          57          58          59          60
               61          62          63          64          65          66          67          68          69          70
               71          72          73          74          75          76          77          78          79          80
               81          82          83          84          85          86          87          88          89          90
               91          92          93          94          95          96          97          98          99         100
 ............................................................................................................................
   1            1           1           1           1           1           1           1           1           1           1
                1           1           1           1           1           1           1           1           1           1
                1           1           1           1           1           1           1           1           1           1
                1           1           1           1           1           1           1           1           1           1
                1           1           1           1           1           1           1           1           1           1
                1           1           1           1           1           1           1           1           1           1
                1           1           1           1           1           1           1           1           1           1
                1           1           1           1           1           1           1           1           1           1
                1           1           1           1           1           1           1           0           0           0
                0           0           0           0           0           0           0           0           0           0

                     CONCN. BOUNDARY ARRAY    FOR LAYER 15 READ ON UNIT281 USING FORMAT: "(25I3)              "
                     ------------------------------------------------------------------------------------------

                1           2           3           4           5           6           7           8           9          10
               11          12          13          14          15          16          17          18          19          20
               21          22          23          24          25          26          27          28          29          30
               31          32          33          34          35          36          37          38          39          40
               41          42          43          44          45          46          47          48          49          50
               51          52          53          54          55          56          57          58          59          60
               61          62          63          64          65          66          67          68          69          70
               71          72          73          74          75          76          77          78          79          80
               81          82          83          84          85          86          87          88          89          90
               91          92          93          94          95          96          97          98          99         100
 ............................................................................................................................
   1            1           1           1           1           1           1           1           1           1           1
                1           1           1           1           1           1           1           1           1           1
                1           1           1           1           1           1           1           1           1           1
                1           1           1           1           1           1           1           1           1           1
                1           1           1           1           1           1           1           1           1           1
                1           1           1           1           1           1           1           1           1           1
                1           1           1           1           1           1           1           1           1           1
                1           1           1           1           1           1           1           1           1           1
                1           1           1           1           1           1           1           1           1           0
                0           0           0           0           0           0           0           0           0           0

                     CONCN. BOUNDARY ARRAY    FOR LAYER 16 READ ON UNIT281 USING FORMAT: "(25I3)              "
                     ------------------------------------------------------------------------------------------

                1           2           3           4           5           6           7           8           9          10
               11          12          13          14          15          16          17          18          19          20
               21          22          23          24          25          26          27          28          29          30
               31          32          33          34          35          36          37          38          39          40
               41          42          43          44          45          46          47          48          49          50
               51          52          53          54          55          56          57          58          59          60
               61          62          63          64          65          66          67          68          69          70
               71          72          73          74          75          76          77          78          79          80
               81          82          83          84          85          86          87          88          89          90
               91          92          93          94          95          96          97          98          99         100
 ............................................................................................................................
   1            0           0           0           0           0           0           0           0           0           0
                0           0           0           0           0           0           0           0           0           0
                1           1           1           1           1           1           1           1           1           1
                1           1           1           1           1           1           1           1           1           1
                1           1           1           1           1           1           1           1           1           1
                1           1           1           1           1           1           1           1           1           1
                1           1           1           1           1           1           1           1           1           1
                1           1           1           1           1           1           1           1           1           1
                1           1           1           1           1           1           1           1           1           1
                0           0           0           0           0           0           0           0           0           0

                     CONCN. BOUNDARY ARRAY    FOR LAYER 17 READ ON UNIT281 USING FORMAT: "(25I3)              "
                     ------------------------------------------------------------------------------------------

                1           2           3           4           5           6           7           8           9          10
               11          12          13          14          15          16          17          18          19          20
               21          22          23          24          25          26          27          28          29          30
               31          32          33          34          35          36          37          38          39          40
               41          42          43          44          45          46          47          48          49          50
               51          52          53          54          55          56          57          58          59          60
               61          62          63          64          65          66          67          68          69          70
               71          72          73          74          75          76          77          78          79          80
               81          82          83          84          85          86          87          88          89          90
               91          92          93          94          95          96          97          98          99         100
 ............................................................................................................................
   1            0           0           0           0           0           0           0           0           0           0
                0           0           0           0           0           0           0           0           0           0
                0           0           0           0           0           1           1           1           1           1
                1           1           1           1           1           1           1           1           1           1
                1           1           1           1           1           1           1           1           1           1
                1           1           1           1           1           1           1           1           1           1
                1           1           1           1           1           1           1           1           1           1
                1           1           1           1           1           1           1           1           1           1
                1           1           1           1           1           1           1           1           1           1
                1           0           0           0           0           0           0           0           0           0

                     CONCN. BOUNDARY ARRAY    FOR LAYER 18 READ ON UNIT281 USING FORMAT: "(25I3)              "
                     ------------------------------------------------------------------------------------------

                1           2           3           4           5           6           7           8           9          10
               11          12          13          14          15          16          17          18          19          20
               21          22          23          24          25          26          27          28          29          30
               31          32          33          34          35          36          37          38          39          40
               41          42          43          44          45          46          47          48          49          50
               51          52          53          54          55          56          57          58          59          60
               61          62          63          64          65          66          67          68          69          70
               71          72          73          74          75          76          77          78          79          80
               81          82          83          84          85          86          87          88          89          90
               91          92          93          94          95          96          97          98          99         100
 ............................................................................................................................
   1            0           0           0           0           0           0           0           0           0           0
                0           0           0           0           0           0           0           0           0           0
                0           0           0           0           0           0           0           0           0           0
                1           1           1           1           1           1           1           1           1           1
                1           1           1           1           1           1           1           1           1           1
                1           1           1           1           1           1           1           1           1           1
                1           1           1           1           1           1           1           1           1           1
                1           1           1           1           1           1           1           1           1           1
                1           1           1           1           1           1           1           1           1           1
                1           1           0           0           0           0           0           0           0           0

                     CONCN. BOUNDARY ARRAY    FOR LAYER 19 READ ON UNIT281 USING FORMAT: "(25I3)              "
                     ------------------------------------------------------------------------------------------

                1           2           3           4           5           6           7           8           9          10
               11          12          13          14          15          16          17          18          19          20
               21          22          23          24          25          26          27          28          29          30
               31          32          33          34          35          36          37          38          39          40
               41          42          43          44          45          46          47          48          49          50
               51          52          53          54          55          56          57          58          59          60
               61          62          63          64          65          66          67          68          69          70
               71          72          73          74          75          76          77          78          79          80
               81          82          83          84          85          86          87          88          89          90
               91          92          93          94          95          96          97          98          99         100
 ............................................................................................................................
   1            0           0           0           0           0           0           0           0           0           0
                0           0           0           0           0           0           0           0           0           0
                0           0           0           0           0           0           0           0           0           0
                0           0           0           0           1           1           1           1           1           1
                1           1           1           1           1           1           1           1           1           1
                1           1           1           1           1           1           1           1           1           1
                1           1           1           1           1           1           1           1           1           1
                1           1           1           1           1           1           1           1           1           1
                1           1           1           1           1           1           1           1           1           1
                1           1           1           1           0           0           0           0           0           0

                     CONCN. BOUNDARY ARRAY    FOR LAYER 20 READ ON UNIT281 USING FORMAT: "(25I3)              "
                     ------------------------------------------------------------------------------------------

                1           2           3           4           5           6           7           8           9          10
               11          12          13          14          15          16          17          18          19          20
               21          22          23          24          25          26          27          28          29          30
               31          32          33          34          35          36          37          38          39          40
               41          42          43          44          45          46          47          48          49          50
               51          52          53          54          55          56          57          58          59          60
               61          62          63          64          65          66          67          68          69          70
               71          72          73          74          75          76          77          78          79          80
               81          82          83          84          85          86          87          88          89          90
               91          92          93          94          95          96          97          98          99         100
 ............................................................................................................................
   1            0           0           0           0           0           0           0           0           0           0
                0           0           0           0           0           0           0           0           0           0
                0           0           0           0           0           0           0           0           0           0
                0           0           0           0           0           0           0           0           0           1
                1           1           1           1           1           1           1           1           1           1
                1           1           1           1           1           1           1           1           1           1
                1           1           1           1           1           1           1           1           1           1
                1           1           1           1           1           1           1           1           1           1
                1           1           1           1           1           1           1           1           1           1
                1           1           1           1           1           0           0           0           0           0

                     CONCN. BOUNDARY ARRAY    FOR LAYER 21 READ ON UNIT281 USING FORMAT: "(25I3)              "
                     ------------------------------------------------------------------------------------------

                1           2           3           4           5           6           7           8           9          10
               11          12          13          14          15          16          17          18          19          20
               21          22          23          24          25          26          27          28          29          30
               31          32          33          34          35          36          37          38          39          40
               41          42          43          44          45          46          47          48          49          50
               51          52          53          54          55          56          57          58          59          60
               61          62          63          64          65          66          67          68          69          70
               71          72          73          74          75          76          77          78          79          80
               81          82          83          84          85          86          87          88          89          90
               91          92          93          94          95          96          97          98          99         100
 ............................................................................................................................
   1            0           0           0           0           0           0           0           0           0           0
                0           0           0           0           0           0           0           0           0           0
                0           0           0           0           0           0           0           0           0           0
                0           0           0           0           0           0           0           0           0           0
                0           0           0           0           0           1           1           1           1           1
                1           1           1           1           1           1           1           1           1           1
                1           1           1           1           1           1           1           1           1           1
                1           1           1           1           1           1           1           1           1           1
                1           1           1           1           1           1           1           1           1           1
                1           1           1           1           1           1           1           0           0           0

                     CONCN. BOUNDARY ARRAY    FOR LAYER 22 READ ON UNIT281 USING FORMAT: "(25I3)              "
                     ------------------------------------------------------------------------------------------

                1           2           3           4           5           6           7           8           9          10
               11          12          13          14          15          16          17          18          19          20
               21          22          23          24          25          26          27          28          29          30
               31          32          33          34          35          36          37          38          39          40
               41          42          43          44          45          46          47          48          49          50
               51          52          53          54          55          56          57          58          59          60
               61          62          63          64          65          66          67          68          69          70
               71          72          73          74          75          76          77          78          79          80
               81          82          83          84          85          86          87          88          89          90
               91          92          93          94          95          96          97          98          99         100
 ............................................................................................................................
   1            0           0           0           0           0           0           0           0           0           0
                0           0           0           0           0           0           0           0           0           0
                0           0           0           0           0           0           0           0           0           0
                0           0           0           0           0           0           0           0           0           0
                0           0           0           0           0           0           0           0           0           0
                0           1           1           1           1           1           1           1           1           1
                1           1           1           1           1           1           1           1           1           1
                1           1           1           1           1           1           1           1           1           1
                1           1           1           1           1           1           1           1           1           1
                1           1           1           1           1           1           1           1           1           0

                     CONCN. BOUNDARY ARRAY    FOR LAYER 23 READ ON UNIT281 USING FORMAT: "(25I3)              "
                     ------------------------------------------------------------------------------------------

                1           2           3           4           5           6           7           8           9          10
               11          12          13          14          15          16          17          18          19          20
               21          22          23          24          25          26          27          28          29          30
               31          32          33          34          35          36          37          38          39          40
               41          42          43          44          45          46          47          48          49          50
               51          52          53          54          55          56          57          58          59          60
               61          62          63          64          65          66          67          68          69          70
               71          72          73          74          75          76          77          78          79          80
               81          82          83          84          85          86          87          88          89          90
               91          92          93          94          95          96          97          98          99         100
 ............................................................................................................................
   1            0           0           0           0           0           0           0           0           0           0
                0           0           0           0           0           0           0           0           0           0
                0           0           0           0           0           0           0           0           0           0
                0           0           0           0           0           0           0           0           0           0
                0           0           0           0           0           0           0           0           0           0
                0           0           0           0           0           0           0           0           1           1
[...]
 =  12.37    (WHEN MIN. R.F.=1)  AT K=  17, I=   1, J=  91

 MAXIMUM STEPSIZE WHICH MEETS STABILITY CRITERION OF THE DISPERSION TERM
 =  4.676    (WHEN MIN. R.F.=1)  AT K=  16, I=   1, J=  89
     1 CALLS TO GCG PACKAGE FOR TRANSPORT TIME STEP 308 IN FLOW TIME STEP   1 STRESS PERIOD   1
     4 TOTAL ITERATIONS
0WARNING: NUMERICAL OSCILLATION ENCOUNTERED
 ONE OR MORE CELL CONCENTRATIONS LESS THAN CRHOREF
 SMALLEST DENSITY =  0.100E+04
 AT CELL (I,J,K) = (   1,  67,   8)

 
 SOLVING FOR HEAD 


     2 CALLS TO PCG ROUTINE FOR TIME STEP   1 IN STRESS PERIOD    1
     6 TOTAL ITERATIONS

 MAXIMUM HEAD CHANGE FOR EACH ITERATION (1 INDICATES THE FIRST INNER ITERATION):

    HEAD CHANGE    HEAD CHANGE    HEAD CHANGE    HEAD CHANGE    HEAD CHANGE 
   LAYER,ROW,COL  LAYER,ROW,COL  LAYER,ROW,COL  LAYER,ROW,COL  LAYER,ROW,COL
 ---------------------------------------------------------------------------
  1  0.3462E-02  0 -0.2574E-02  0 -0.4098E-02  0  0.1560E-02  0  0.5358E-03
   ( 11,  1, 55)  ( 10,  1, 12)  ( 11,  1, 55)  ( 11,  1, 55)  ( 11,  1, 65)
  1 -0.2368E-03
   ( 11,  1, 65)

 MAXIMUM RESIDUAL FOR EACH ITERATION (1 INDICATES THE FIRST INNER ITERATION):

    RESIDUAL       RESIDUAL       RESIDUAL       RESIDUAL       RESIDUAL    
   LAYER,ROW,COL  LAYER,ROW,COL  LAYER,ROW,COL  LAYER,ROW,COL  LAYER,ROW,COL
 ---------------------------------------------------------------------------
  1 -0.5095E+05  0 -0.4070E+05  0  -4042.      0  -2705.      0  -1981.    
   ( 20,  1, 86)  ( 20,  1, 86)  ( 23,  1, 91)  ( 23,  1, 91)  ( 23,  1, 91)
  1  -1593.    
   ( 23,  1, 91)


 FLOW MODEL IS TRANSIENT
 FLOW MODEL CONTAINS CONSTANT-HEAD CELLS


 MAXIMUM STEPSIZE DURING WHICH ANY PARTICLE CANNOT MOVE MORE THAN ONE CELL
 =  15.26    (WHEN MIN. R.F.=1)  AT K=  18, I=   1, J=  91

 MAXIMUM STEPSIZE WHICH MEETS STABILITY CRITERION OF THE ADVECTION TERM
 (FOR PURE FINITE-DIFFERENCE OPTION, MIXELM=0) 
 =  8.910    (WHEN MIN. R.F.=1)  AT K=  16, I=   1, J=  90


 TOTAL NUMBER OF POINT SOURCES/SINKS PRESENT IN THE FLOW MODEL =    30

 MAXIMUM STEPSIZE WHICH MEETS STABILITY CRITERION OF THE SINK & SOURCE TERM
 =  12.36    (WHEN MIN. R.F.=1)  AT K=  17, I=   1, J=  91

 MAXIMUM STEPSIZE WHICH MEETS STABILITY CRITERION OF THE DISPERSION TERM
 =  4.671    (WHEN MIN. R.F.=1)  AT K=  16, I=   1, J=  89
     1 CALLS TO GCG PACKAGE FOR TRANSPORT TIME STEP 309 IN FLOW TIME STEP   1 STRESS PERIOD   1
     4 TOTAL ITERATIONS
0WARNING: NUMERICAL OSCILLATION ENCOUNTERED
 ONE OR MORE CELL CONCENTRATIONS LESS THAN CRHOREF
 SMALLEST DENSITY =  0.100E+04
 AT CELL (I,J,K) = (   1,  67,   8)

 
 SOLVING FOR HEAD 


     1 CALLS TO PCG ROUTINE FOR TIME STEP   1 IN STRESS PERIOD    1
     1 TOTAL ITERATIONS

 MAXIMUM HEAD CHANGE FOR EACH ITERATION (1 INDICATES THE FIRST INNER ITERATION):

    HEAD CHANGE    HEAD CHANGE    HEAD CHANGE    HEAD CHANGE    HEAD CHANGE 
   LAYER,ROW,COL  LAYER,ROW,COL  LAYER,ROW,COL  LAYER,ROW,COL  LAYER,ROW,COL
 ---------------------------------------------------------------------------
  1 -0.8773E-03
   ( 11,  1, 60)

 MAXIMUM RESIDUAL FOR EACH ITERATION (1 INDICATES THE FIRST INNER ITERATION):

    RESIDUAL       RESIDUAL       RESIDUAL       RESIDUAL       RESIDUAL    
   LAYER,ROW,COL  LAYER,ROW,COL  LAYER,ROW,COL  LAYER,ROW,COL  LAYER,ROW,COL
 ---------------------------------------------------------------------------
  1  -9340.    
   ( 18,  1, 86)


 FLOW MODEL IS TRANSIENT
 FLOW MODEL CONTAINS CONSTANT-HEAD CELLS


 MAXIMUM STEPSIZE DURING WHICH ANY PARTICLE CANNOT MOVE MORE THAN ONE CELL
 =  15.39    (WHEN MIN. R.F.=1)  AT K=  18, I=   1, J=  91

 MAXIMUM STEPSIZE WHICH MEETS STABILITY CRITERION OF THE ADVECTION TERM
 (FOR PURE FINITE-DIFFERENCE OPTION, MIXELM=0) 
 =  8.968    (WHEN MIN. R.F.=1)  AT K=  16, I=   1, J=  90


 TOTAL NUMBER OF POINT SOURCES/SINKS PRESENT IN THE FLOW MODEL =    30

 MAXIMUM STEPSIZE WHICH MEETS STABILITY CRITERION OF THE SINK & SOURCE TERM
 =  12.43    (WHEN MIN. R.F.=1)  AT K=  17, I=   1, J=  91

 MAXIMUM STEPSIZE WHICH MEETS STABILITY CRITERION OF THE DISPERSION TERM
 =  4.668    (WHEN MIN. R.F.=1)  AT K=  16, I=   1, J=  89
     1 CALLS TO GCG PACKAGE FOR TRANSPORT TIME STEP 310 IN FLOW TIME STEP   1 STRESS PERIOD   1
     4 TOTAL ITERATIONS
  MAXIMUM CONCENTRATION CHANGES FOR EACH ITERATION:
  MAX. CHANGE LAYER,ROW,COL MAX. CHANGE LAYER,ROW,COL MAX. CHANGE LAYER,ROW,COL MAX. CHANGE LAYER,ROW,COL MAX. CHANGE LAYER,ROW,COL
 ------------------------------------------------------------------------------------------------------------------------------------
   0.3283     ( 16,  1, 90)  0.6321E-03 ( 17,  1, 89)  0.1693E-04 ( 16,  1, 89)  0.1330E-06 ( 17,  1, 88)



 >>>>>>>>>>>>>>>>>>>>>>>>>>>>>>>>>>>>>>>>>>>>>>>>>>>>>>>FOR COMPONENT NO. 01<<<<<<<<<<<<<<<<<<<<<<<<<<<<<<<<<<<<<<<<<<<<<<<<<<<<<<<


                                            -------------------------------------------
                                                      TRANSPORT STEP NO.  310
                                            -------------------------------------------

 TOTAL ELAPSED TIME SINCE BEGINNING OF SIMULATION =   1983.543    D   
 .....................................................................

                     CUMMULATIVE MASS BUDGETS AT END OF TRANSPORT STEP  310, TIME STEP    1, STRESS PERIOD    1
                     ------------------------------------------------------------------------------------------

                                                             IN                           OUT
                                                      ----------------             ----------------
                               CONSTANT CONCENTRATION:    0.000000                    0.000000    
                                        CONSTANT HEAD:   0.4300176E+08              -0.4592248E+08
                                             RECHARGE:    0.000000                    0.000000    
                                MASS STORAGE (SOLUTE):   0.2625178E+08              -0.2333106E+08
                            ---------------------------------------------------------------------------
                                              [TOTAL]:   0.6925472E+08 KG           -0.6925471E+08 KG  

                                                          NET (IN - OUT):    1.538961    
                                                   DISCREPANCY (PERCENT):   0.2222174E-05
0WARNING: NUMERICAL OSCILLATION ENCOUNTERED
 ONE OR MORE CELL CONCENTRATIONS LESS THAN CRHOREF
 SMALLEST DENSITY =  0.100E+04
 AT CELL (I,J,K) = (   1,  67,   8)

 
 SOLVING FOR HEAD 


     2 CALLS TO PCG ROUTINE FOR TIME STEP   1 IN STRESS PERIOD    1
     6 TOTAL ITERATIONS

 MAXIMUM HEAD CHANGE FOR EACH ITERATION (1 INDICATES THE FIRST INNER ITERATION):

    HEAD CHANGE    HEAD CHANGE    HEAD CHANGE    HEAD CHANGE    HEAD CHANGE 
   LAYER,ROW,COL  LAYER,ROW,COL  LAYER,ROW,COL  LAYER,ROW,COL  LAYER,ROW,COL
 ---------------------------------------------------------------------------
  1  0.4785E-02  0 -0.3385E-02  0 -0.2829E-02  0 -0.1598E-02  0  0.8968E-03
   ( 11,  1, 60)  ( 11,  1, 60)  ( 10,  1, 12)  ( 11,  1, 42)  ( 11,  1, 69)
  1  0.4955E-03
   ( 11,  1, 55)

 MAXIMUM RESIDUAL FOR EACH ITERATION (1 INDICATES THE FIRST INNER ITERATION):

    RESIDUAL       RESIDUAL       RESIDUAL       RESIDUAL       RESIDUAL    
   LAYER,ROW,COL  LAYER,ROW,COL  LAYER,ROW,COL  LAYER,ROW,COL  LAYER,ROW,COL
 ---------------------------------------------------------------------------
  1 -0.6615E+05  0 -0.2819E+05  0   7355.      0   4537.      0   2635.    
   ( 19,  1, 86)  ( 19,  1, 86)  ( 23,  1, 92)  ( 23,  1, 92)  ( 23,  1, 92)
  1   2241.    
   ( 23,  1, 92)


 FLOW MODEL IS TRANSIENT
 FLOW MODEL CONTAINS CONSTANT-HEAD CELLS


 MAXIMUM STEPSIZE DURING WHICH ANY PARTICLE CANNOT MOVE MORE THAN ONE CELL
 =  15.74    (WHEN MIN. R.F.=1)  AT K=  18, I=   1, J=  91

 MAXIMUM STEPSIZE WHICH MEETS STABILITY CRITERION OF THE ADVECTION TERM
 (FOR PURE FINITE-DIFFERENCE OPTION, MIXELM=0) 
 =  8.998    (WHEN MIN. R.F.=1)  AT K=  16, I=   1, J=  90


 TOTAL NUMBER OF POINT SOURCES/SINKS PRESENT IN THE FLOW MODEL =    30

 MAXIMUM STEPSIZE WHICH MEETS STABILITY CRITERION OF THE SINK & SOURCE TERM
 =  12.67    (WHEN MIN. R.F.=1)  AT K=  17, I=   1, J=  91

 MAXIMUM STEPSIZE WHICH MEETS STABILITY CRITERION OF THE DISPERSION TERM
 =  4.649    (WHEN MIN. R.F.=1)  AT K=  16, I=   1, J=  89
     1 CALLS TO GCG PACKAGE FOR TRANSPORT TIME STEP 311 IN FLOW TIME STEP   1 STRESS PERIOD   1
     4 TOTAL ITERATIONS
0WARNING: NUMERICAL OSCILLATION ENCOUNTERED
 ONE OR MORE CELL CONCENTRATIONS LESS THAN CRHOREF
 SMALLEST DENSITY =  0.100E+04
 AT CELL (I,J,K) = (   1,  67,   8)

 
 SOLVING FOR HEAD 


     2 CALLS TO PCG ROUTINE FOR TIME STEP   1 IN STRESS PERIOD    1
     4 TOTAL ITERATIONS

 MAXIMUM HEAD CHANGE FOR EACH ITERATION (1 INDICATES THE FIRST INNER ITERATION):

    HEAD CHANGE    HEAD CHANGE    HEAD CHANGE    HEAD CHANGE    HEAD CHANGE 
   LAYER,ROW,COL  LAYER,ROW,COL  LAYER,ROW,COL  LAYER,ROW,COL  LAYER,ROW,COL
 ---------------------------------------------------------------------------
  1 -0.1426E-02  0  0.1837E-02  0  0.3972E-03  1 -0.3837E-03
   ( 11,  1, 55)  ( 11,  1, 55)  ( 10,  1, 12)  ( 11,  1, 55)

 MAXIMUM RESIDUAL FOR EACH ITERATION (1 INDICATES THE FIRST INNER ITERATION):

    RESIDUAL       RESIDUAL       RESIDUAL       RESIDUAL       RESIDUAL    
   LAYER,ROW,COL  LAYER,ROW,COL  LAYER,ROW,COL  LAYER,ROW,COL  LAYER,ROW,COL
 ---------------------------------------------------------------------------
  1  0.1086E+05  0  -4611.      0  -4391.      1  -4077.    
   ( 23,  1, 92)  ( 22,  1, 92)  ( 22,  1, 92)  ( 22,  1, 92)


 FLOW MODEL IS TRANSIENT
 FLOW MODEL CONTAINS CONSTANT-HEAD CELLS


 MAXIMUM STEPSIZE DURING WHICH ANY PARTICLE CANNOT MOVE MORE THAN ONE CELL
 =  15.52    (WHEN MIN. R.F.=1)  AT K=  18, I=   1, J=  91

 MAXIMUM STEPSIZE WHICH MEETS STABILITY CRITERION OF THE ADVECTION TERM
 (FOR PURE FINITE-DIFFERENCE OPTION, MIXELM=0) 
 =  8.971    (WHEN MIN. R.F.=1)  AT K=  16, I=   1, J=  90


 TOTAL NUMBER OF POINT SOURCES/SINKS PRESENT IN THE FLOW MODEL =    30

 MAXIMUM STEPSIZE WHICH MEETS STABILITY CRITERION OF THE SINK & SOURCE TERM
 =  12.56    (WHEN MIN. R.F.=1)  AT K=  17, I=   1, J=  91

 MAXIMUM STEPSIZE WHICH MEETS STABILITY CRITERION OF THE DISPERSION TERM
 =  4.663    (WHEN MIN. R.F.=1)  AT K=  16, I=   1, J=  89
     1 CALLS TO GCG PACKAGE FOR TRANSPORT TIME STEP 312 IN FLOW TIME STEP   1 STRESS PERIOD   1
     4 TOTAL ITERATIONS
0WARNING: NUMERICAL OSCILLATION ENCOUNTERED
 ONE OR MORE CELL CONCENTRATIONS LESS THAN CRHOREF
 SMALLEST DENSITY =  0.100E+04
 AT CELL (I,J,K) = (   1,  67,   7)

 
 SOLVING FOR HEAD 


     2 CALLS TO PCG ROUTINE FOR TIME STEP   1 IN STRESS PERIOD    1
     5 TOTAL ITERATIONS

 MAXIMUM HEAD CHANGE FOR EACH ITERATION (1 INDICATES THE FIRST INNER ITERATION):

    HEAD CHANGE    HEAD CHANGE    HEAD CHANGE    HEAD CHANGE    HEAD CHANGE 
   LAYER,ROW,COL  LAYER,ROW,COL  LAYER,ROW,COL  LAYER,ROW,COL  LAYER,ROW,COL
 ---------------------------------------------------------------------------
  1  0.2154E-02  0 -0.1891E-02  0  0.1940E-02  0 -0.9670E-03  1  0.6759E-03
   ( 10,  1, 12)  (  9,  1, 12)  ( 11,  1, 55)  ( 11,  1, 55)  ( 11,  1, 55)

 MAXIMUM RESIDUAL FOR EACH ITERATION (1 INDICATES THE FIRST INNER ITERATION):

    RESIDUAL       RESIDUAL       RESIDUAL       RESIDUAL       RESIDUAL    
   LAYER,ROW,COL  LAYER,ROW,COL  LAYER,ROW,COL  LAYER,ROW,COL  LAYER,ROW,COL
 ---------------------------------------------------------------------------
  1 -0.4726E+05  0 -0.1475E+05  0  -8203.      0  -5915.      1  -4720.    
   ( 23,  1, 90)  ( 21,  1, 91)  ( 21,  1, 91)  ( 21,  1, 91)  ( 21,  1, 91)


 FLOW MODEL IS TRANSIENT
 FLOW MODEL CONTAINS CONSTANT-HEAD CELLS


 MAXIMUM STEPSIZE DURING WHICH ANY PARTICLE CANNOT MOVE MORE THAN ONE CELL
 =  15.86    (WHEN MIN. R.F.=1)  AT K=  18, I=   1, J=  91

 MAXIMUM STEPSIZE WHICH MEETS STABILITY CRITERION OF THE ADVECTION TERM
 (FOR PURE FINITE-DIFFERENCE OPTION, MIXELM=0) 
 =  9.012    (WHEN MIN. R.F.=1)  AT K=  16, I=   1, J=  90


 TOTAL NUMBER OF POINT SOURCES/SINKS PRESENT IN THE FLOW MODEL =    30

 MAXIMUM STEPSIZE WHICH MEETS STABILITY CRITERION OF THE SINK & SOURCE TERM
 =  12.78    (WHEN MIN. R.F.=1)  AT K=  17, I=   1, J=  91

 MAXIMUM STEPSIZE WHICH MEETS STABILITY CRITERION OF THE DISPERSION TERM
 =  4.658    (WHEN MIN. R.F.=1)  AT K=  16, I=   1, J=  89
     1 CALLS TO GCG PACKAGE FOR TRANSPORT TIME STEP 313 IN FLOW TIME STEP   1 STRESS PERIOD   1
     4 TOTAL ITERATIONS
0WARNING: NUMERICAL OSCILLATION ENCOUNTERED
 ONE OR MORE CELL CONCENTRATIONS LESS THAN CRHOREF
 SMALLEST DENSITY =  0.100E+04
 AT CELL (I,J,K) = (   1,  67,   7)

 
 SOLVING FOR HEAD 


     2 CALLS TO PCG ROUTINE FOR TIME STEP   1 IN STRESS PERIOD    1
     4 TOTAL ITERATIONS

 MAXIMUM HEAD CHANGE FOR EACH ITERATION (1 INDICATES THE FIRST INNER ITERATION):

    HEAD CHANGE    HEAD CHANGE    HEAD CHANGE    HEAD CHANGE    HEAD CHANGE 
   LAYER,ROW,COL  LAYER,ROW,COL  LAYER,ROW,COL  LAYER,ROW,COL  LAYER,ROW,COL
 ---------------------------------------------------------------------------
  1 -0.2238E-02  0  0.1855E-02  0  0.8612E-03  1 -0.4848E-03
   ( 11,  1, 55)  ( 11,  1, 55)  ( 10,  1, 12)  ( 11,  1, 55)

 MAXIMUM RESIDUAL FOR EACH ITERATION (1 INDICATES THE FIRST INNER ITERATION):

    RESIDUAL       RESIDUAL       RESIDUAL       RESIDUAL       RESIDUAL    
   LAYER,ROW,COL  LAYER,ROW,COL  LAYER,ROW,COL  LAYER,ROW,COL  LAYER,ROW,COL
 ---------------------------------------------------------------------------
  1  0.1895E+05  0  0.1007E+05  0   7532.      1   6633.    
   ( 20,  1, 91)  ( 20,  1, 91)  ( 20,  1, 91)  ( 20,  1, 91)


 FLOW MODEL IS TRANSIENT
 FLOW MODEL CONTAINS CONSTANT-HEAD CELLS


 MAXIMUM STEPSIZE DURING WHICH ANY PARTICLE CANNOT MOVE MORE THAN ONE CELL
 =  15.72    (WHEN MIN. R.F.=1)  AT K=  18, I=   1, J=  91

 MAXIMUM STEPSIZE WHICH MEETS STABILITY CRITERION OF THE ADVECTION TERM
 (FOR PURE FINITE-DIFFERENCE OPTION, MIXELM=0) 
 =  8.991    (WHEN MIN. R.F.=1)  AT K=  16, I=   1, J=  90


 TOTAL NUMBER OF POINT SOURCES/SINKS PRESENT IN THE FLOW MODEL =    30

 MAXIMUM STEPSIZE WHICH MEETS STABILITY CRITERION OF THE SINK & SOURCE TERM
 =  12.69    (WHEN MIN. R.F.=1)  AT K=  17, I=   1, J=  91

 MAXIMUM STEPSIZE WHICH MEETS STABILITY CRITERION OF THE DISPERSION TERM
 =  4.666    (WHEN MIN. R.F.=1)  AT K=  16, I=   1, J=  89
     1 CALLS TO GCG PACKAGE FOR TRANSPORT TIME STEP 314 IN FLOW TIME STEP   1 STRESS PERIOD   1
     4 TOTAL ITERATIONS
  MAXIMUM CONCENTRATION CHANGES FOR EACH ITERATION:
  MAX. CHANGE LAYER,ROW,COL MAX. CHANGE LAYER,ROW,COL MAX. CHANGE LAYER,ROW,COL MAX. CHANGE LAYER,ROW,COL MAX. CHANGE LAYER,ROW,COL
 ------------------------------------------------------------------------------------------------------------------------------------
   0.2469     ( 16,  1, 90)  0.3631E-03 ( 17,  1, 89)  0.5298E-05 ( 16,  1, 89)  0.1975E-07 ( 17,  1, 89)
 UBUDSV SAVING "         STORAGE" ON UNIT 50 AT TIME STEP  1, STRESS PERIOD    1
 UBUDSV SAVING "   CONSTANT HEAD" ON UNIT 50 AT TIME STEP  1, STRESS PERIOD    1
 UBUDSV SAVING "FLOW RIGHT FACE " ON UNIT 50 AT TIME STEP  1, STRESS PERIOD    1
 UBUDSV SAVING "FLOW LOWER FACE " ON UNIT 50 AT TIME STEP  1, STRESS PERIOD    1
 UBUDSV SAVING "        RECHARGE" ON UNIT 51 AT TIME STEP  1, STRESS PERIOD    1
 UBUDSV SAVING "            DCDT" ON UNIT 50 AT TIME STEP  1, STRESS PERIOD    1



 >>>>>>>>>>>>>>>>>>>>>>>>>>>>>>>>>>>>>>>>>>>>>>>>>>>>>>>FOR COMPONENT NO. 01<<<<<<<<<<<<<<<<<<<<<<<<<<<<<<<<<<<<<<<<<<<<<<<<<<<<<<<


                                            -------------------------------------------
                                                      TRANSPORT STEP NO.  314
                                            -------------------------------------------

 TOTAL ELAPSED TIME SINCE BEGINNING OF SIMULATION =   2000.000    D   
 .....................................................................

                     CUMMULATIVE MASS BUDGETS AT END OF TRANSPORT STEP  314, TIME STEP    1, STRESS PERIOD    1
                     ------------------------------------------------------------------------------------------

                                                             IN                           OUT
                                                      ----------------             ----------------
                               CONSTANT CONCENTRATION:    0.000000                    0.000000    
                                        CONSTANT HEAD:   0.4366282E+08              -0.4657032E+08
                                             RECHARGE:    0.000000                    0.000000    
                                MASS STORAGE (SOLUTE):   0.2629653E+08              -0.2338903E+08
                            ---------------------------------------------------------------------------
                                              [TOTAL]:   0.6996053E+08 KG           -0.6996053E+08 KG  

                                                          NET (IN - OUT):    1.549727    
                                                   DISCREPANCY (PERCENT):   0.2215145E-05
0WARNING: NUMERICAL OSCILLATION ENCOUNTERED
 ONE OR MORE CELL CONCENTRATIONS LESS THAN CRHOREF
 SMALLEST DENSITY =  0.100E+04
 AT CELL (I,J,K) = (   1,  67,   7)


 HEAD WILL BE SAVED ON UNIT   30 AT END OF TIME STEP   1, STRESS PERIOD    1
1
  MASS BUDGET FOR ENTIRE MODEL AT END OF TIME STEP  1 IN STRESS PERIOD   1
  ------------------------------------------------------------------------------

     CUMULATIVE MASS      M       RATES FOR THIS TIME STEP      M/T
     ------------------                 ------------------------

           IN:                                      IN:
           ---                                      ---
             STORAGE =       86135.0215               STORAGE =          17.4862
       CONSTANT HEAD =  1281134195.4937         CONSTANT HEAD =     1182936.7296
            RECHARGE =   974400000.0000              RECHARGE =      487200.0000
                DCDT =    19121079.4028                  DCDT =        1611.1679

            TOTAL IN =  2274741409.9180              TOTAL IN =     1671765.3837

          OUT:                                     OUT:
          ----                                     ----
             STORAGE =     1514155.0754               STORAGE =           4.0114
       CONSTANT HEAD =  2255663901.9951         CONSTANT HEAD =     1668313.3228
            RECHARGE =           0.0000              RECHARGE =           0.0000
                DCDT =    17947804.8277                  DCDT =        2252.3173

           TOTAL OUT =  2275125861.8983             TOTAL OUT =     1670569.6515

            IN - OUT =     -384451.9802              IN - OUT =        1195.7321

 PERCENT DISCREPANCY =          -0.02     PERCENT DISCREPANCY =           0.07



0


          TIME SUMMARY AT END OF TRANSPORT STEP  314 IN TIME STEP    1 IN STRESS PERIOD   1
                    SECONDS     MINUTES      HOURS       DAYS        YEARS
                    -----------------------------------------------------------
  TRANS STEP LENGTH 2.58240E+05  4304.0      71.733      2.9889     8.18313E-03
   TIME STEP LENGTH 1.72800E+08 2.88000E+06  48000.      2000.0      5.4757    
 STRESS PERIOD TIME 1.72800E+08 2.88000E+06  48000.      2000.0      5.4757    
         TOTAL TIME 1.72800E+08 2.88000E+06  48000.      2000.0      5.4757    
1
