
 ========== GV TRANSLATION TO MT3D ==========



 >>>>> Testing Layer Elevations <<<<<

 *** Opening HEADSAVE File to set initial conditions ***

*** Reading Heads for Layer 1 ***
    Reading Binary File
 Time step and stress period found in file
*** Reading Heads for Layer 2 ***
    Reading Binary File
 Time step and stress period found in file
*** Reading Heads for Layer 3 ***
    Reading Binary File
 Time step and stress period found in file
*** Reading Heads for Layer 4 ***
    Reading Binary File
 Time step and stress period found in file
*** Reading Heads for Layer 5 ***
    Reading Binary File
 Time step and stress period found in file
*** Reading Heads for Layer 6 ***
    Reading Binary File
 Time step and stress period found in file
*** Reading Heads for Layer 7 ***
    Reading Binary File
 Time step and stress period found in file
*** Reading Heads for Layer 8 ***
    Reading Binary File
 Time step and stress period found in file
*** Reading Heads for Layer 9 ***
    Reading Binary File
 Time step and stress period found in file
*** Reading Heads for Layer 10 ***
    Reading Binary File
 Time step and stress period found in file
*** Reading Heads for Layer 11 ***
    Reading Binary File
 Time step and stress period found in file
*** Reading Heads for Layer 12 ***
    Reading Binary File
 Time step and stress period found in file
*** Reading Heads for Layer 13 ***
    Reading Binary File
 Time step and stress period found in file
*** Reading Heads for Layer 14 ***
    Reading Binary File
 Time step and stress period found in file
*** Reading Heads for Layer 15 ***
    Reading Binary File
 Time step and stress period found in file
*** Reading Heads for Layer 16 ***
    Reading Binary File
 Time step and stress period found in file
*** Reading Heads for Layer 17 ***
    Reading Binary File
 Time step and stress period found in file
*** Reading Heads for Layer 18 ***
    Reading Binary File
 Time step and stress period found in file
*** Reading Heads for Layer 19 ***
    Reading Binary File
 Time step and stress period found in file
*** Reading Heads for Layer 20 ***
    Reading Binary File
 Time step and stress period found in file
*** Reading Heads for Layer 21 ***
    Reading Binary File
 Time step and stress period found in file
*** Reading Heads for Layer 22 ***
    Reading Binary File
 Time step and stress period found in file
*** Reading Heads for Layer 23 ***
    Reading Binary File
 Time step and stress period found in file
 *** Opening MT3D Concentration File to set initial concentrations ***

*** Reading Concentrations for Layer 1 ***
    Reading Binary File
    Reading Binary File
    Reading Binary File
    Reading Binary File
    Reading Binary File
    Reading Binary File
    Reading Binary File
    Reading Binary File
    Reading Binary File
    Reading Binary File
    Reading Binary File
    Reading Binary File
    Reading Binary File
    Reading Binary File
    Reading Binary File
    Reading Binary File
    Reading Binary File
    Reading Binary File
    Reading Binary File
    Reading Binary File
    Reading Binary File
    Reading Binary File
    Reading Binary File
    Reading Binary File
    Reading Binary File
    Reading Binary File
    Reading Binary File
    Reading Binary File
    Reading Binary File
    Reading Binary File
    Reading Binary File
    Reading Binary File
    Reading Binary File
    Reading Binary File
    Reading Binary File
    Reading Binary File
    Reading Binary File
    Reading Binary File
    Reading Binary File
    Reading Binary File
    Reading Binary File
    Reading Binary File
    Reading Binary File
    Reading Binary File
    Reading Binary File
    Reading Binary File
    Reading Binary File
    Reading Binary File
    Reading Binary File
    Reading Binary File
    Reading Binary File
    Reading Binary File
    Reading Binary File
    Reading Binary File
    Reading Binary File
    Reading Binary File
    Reading Binary File
    Reading Binary File
    Reading Binary File
    Reading Binary File
    Reading Binary File
    Reading Binary File
    Reading Binary File
    Reading Binary File
    Reading Binary File
    Reading Binary File
    Reading Binary File
    Reading Binary File
    Reading Binary File
    Reading Binary File
    Reading Binary File
    Reading Binary File
    Reading Binary File
    Reading Binary File
    Reading Binary File
    Reading Binary File
    Reading Binary File
    Reading Binary File
    Reading Binary File
    Reading Binary File
    Reading Binary File
    Reading Binary File
    Reading Binary File
    Reading Binary File
    Reading Binary File
    Reading Binary File
    Reading Binary File
    Reading Binary File
    Reading Binary File
    Reading Binary File
    Reading Binary File
    Reading Binary File
    Reading Binary File
    Reading Binary File
    Reading Binary File
    Reading Binary File
    Reading Binary File
    Reading Binary File
    Reading Binary File
    Reading Binary File
    Reading Binary File
    Reading Binary File
    Reading Binary File
    Reading Binary File
    Reading Binary File
    Reading Binary File
    Reading Binary File
    Reading Binary File
    Reading Binary File
    Reading Binary File
    Reading Binary File
    Reading Binary File
    Reading Binary File
    Reading Binary File
    Reading Binary File
    Reading Binary File
    Reading Binary File
    Reading Binary File
    Reading Binary File
    Reading Binary File
    Reading Binary File
    Reading Binary File
    Reading Binary File
    Reading Binary File
    Reading Binary File
    Reading Binary File
    Reading Binary File
    Reading Binary File
    Reading Binary File
    Reading Binary File
    Reading Binary File
    Reading Binary File
    Reading Binary File
    Reading Binary File
    Reading Binary File
    Reading Binary File
    Reading Binary File
    Reading Binary File
    Reading Binary File
    Reading Binary File
    Reading Binary File
    Reading Binary File
    Reading Binary File
    Reading Binary File
    Reading Binary File
    Reading Binary File
    Reading Binary File
    Reading Binary File
    Reading Binary File
    Reading Binary File
    Reading Binary File
    Reading Binary File
    Reading Binary File
    Reading Binary File
    Reading Binary File
    Reading Binary File
    Reading Binary File
    Reading Binary File
    Reading Binary File
    Reading Binary File
    Reading Binary File
    Reading Binary File
    Reading Binary File
    Reading Binary File
    Reading Binary File
    Reading Binary File
    Reading Binary File
    Reading Binary File
    Reading Binary File
    Reading Binary File
    Reading Binary File
    Reading Binary File
    Reading Binary File
    Reading Binary File
    Reading Binary File
    Reading Binary File
    Reading Binary File
    Reading Binary File
    Reading Binary File
    Reading Binary File
    Reading Binary File
    Reading Binary File
    Reading Binary File
    Reading Binary File
    Reading Binary File
    Reading Binary File
    Reading Binary File
    Reading Binary File
    Reading Binary File
    Reading Binary File
    Reading Binary File
    Reading Binary File
    Reading Binary File
    Reading Binary File
    Reading Binary File
    Reading Binary File
    Reading Binary File
    Reading Binary File
    Reading Binary File
    Reading Binary File
    Reading Binary File
    Reading Binary File
    Reading Binary File
    Reading Binary File
    Reading Binary File
    Reading Binary File
    Reading Binary File
    Reading Binary File
    Reading Binary File
    Reading Binary File
    Reading Binary File
    Reading Binary File
    Reading Binary File
    Reading Binary File
    Reading Binary File
    Reading Binary File
    Reading Binary File
    Reading Binary File
    Reading Binary File
    Reading Binary File
    Reading Binary File
    Reading Binary File
    Reading Binary File
    Reading Binary File
    Reading Binary File
    Reading Binary File
    Reading Binary File
    Reading Binary File
    Reading Binary File
    Reading Binary File
    Reading Binary File
    Reading Binary File
    Reading Binary File
    Reading Binary File
    Reading Binary File
    Reading Binary File
    Reading Binary File
    Reading Binary File
    Reading Binary File
    Reading Binary File
    Reading Binary File
    Reading Binary File
    Reading Binary File
    Reading Binary File
    Reading Binary File
    Reading Binary File
    Reading Binary File
    Reading Binary File
    Reading Binary File
    Reading Binary File
    Reading Binary File
    Reading Binary File
    Reading Binary File
    Reading Binary File
    Reading Binary File
    Reading Binary File
    Reading Binary File
    Reading Binary File
    Reading Binary File
    Reading Binary File
    Reading Binary File
    Reading Binary File
    Reading Binary File
    Reading Binary File
    Reading Binary File
    Reading Binary File
    Reading Binary File
    Reading Binary File
    Reading Binary File
    Reading Binary File
    Reading Binary File
    Reading Binary File
    Reading Binary File
    Reading Binary File
    Reading Binary File
    Reading Binary File
    Reading Binary File
    Reading Binary File
    Reading Binary File
    Reading Binary File
    Reading Binary File
    Reading Binary File
    Reading Binary File
    Reading Binary File
    Reading Binary File
    Reading Binary File
    Reading Binary File
    Reading Binary File
    Reading Binary File
    Reading Binary File
    Reading Binary File
    Reading Binary File
    Reading Binary File
    Reading Binary File
    Reading Binary File
    Reading Binary File
    Reading Binary File
    Reading Binary File
    Reading Binary File
    Reading Binary File
    Reading Binary File
    Reading Binary File
    Reading Binary File
    Reading Binary File
    Reading Binary File
    Reading Binary File
    Reading Binary File
    Reading Binary File
    Reading Binary File
    Reading Binary File
    Reading Binary File
    Reading Binary File
    Reading Binary File
    Reading Binary File
    Reading Binary File
    Reading Binary File
    Reading Binary File
    Reading Binary File
    Reading Binary File
    Reading Binary File
    Reading Binary File
    Reading Binary File
    Reading Binary File
    Reading Binary File
    Reading Binary File
    Reading Binary File
    Reading Binary File
    Reading Binary File
    Reading Binary File
    Reading Binary File
    Reading Binary File
    Reading Binary File
    Reading Binary File
    Reading Binary File
    Reading Binary File
    Reading Binary File
    Reading Binary File
    Reading Binary File
    Reading Binary File
    Reading Binary File
    Reading Binary File
    Reading Binary File
    Reading Binary File
    Reading Binary File
    Reading Binary File
    Reading Binary File
    Reading Binary File
    Reading Binary File
    Reading Binary File
    Reading Binary File
    Reading Binary File
    Reading Binary File
    Reading Binary File
    Reading Binary File
    Reading Binary File
    Reading Binary File
    Reading Binary File
    Reading Binary File
    Reading Binary File
    Reading Binary File
    Reading Binary File
    Reading Binary File
    Reading Binary File
    Reading Binary File
    Reading Binary File
    Reading Binary File
    Reading Binary File
    Reading Binary File
    Reading Binary File
    Reading Binary File
    Reading Binary File
    Reading Binary File
    Reading Binary File
    Reading Binary File
    Reading Binary File
    Reading Binary File
    Reading Binary File
    Reading Binary File
    Reading Binary File
    Reading Binary File
    Reading Binary File
    Reading Binary File
    Reading Binary File
    Reading Binary File
    Reading Binary File
    Reading Binary File
    Reading Binary File
    Reading Binary File
    Reading Binary File
    Reading Binary File
    Reading Binary File
    Reading Binary File
    Reading Binary File
    Reading Binary File
    Reading Binary File
    Reading Binary File
    Reading Binary File
    Reading Binary File
    Reading Binary File
    Reading Binary File
    Reading Binary File
    Reading Binary File
    Reading Binary File
    Reading Binary File
    Reading Binary File
    Reading Binary File
    Reading Binary File
    Reading Binary File
    Reading Binary File
    Reading Binary File
    Reading Binary File
    Reading Binary File
    Reading Binary File
    Reading Binary File
    Reading Binary File
    Reading Binary File
    Reading Binary File
    Reading Binary File
    Reading Binary File
    Reading Binary File
    Reading Binary File
    Reading Binary File
    Reading Binary File
    Reading Binary File
    Reading Binary File
    Reading Binary File
    Reading Binary File
    Reading Binary File
    Reading Binary File
    Reading Binary File
    Reading Binary File
    Reading Binary File
    Reading Binary File
    Reading Binary File
    Reading Binary File
    Reading Binary File
    Reading Binary File
    Reading Binary File
    Reading Binary File
    Reading Binary File
    Reading Binary File
    Reading Binary File
    Reading Binary File
    Reading Binary File
    Reading Binary File
    Reading Binary File
    Reading Binary File
    Reading Binary File
    Reading Binary File
    Reading Binary File
    Reading Binary File
    Reading Binary File
    Reading Binary File
    Reading Binary File
    Reading Binary File
    Reading Binary File
    Reading Binary File
    Reading Binary File
    Reading Binary File
    Reading Binary File
    Reading Binary File
    Reading Binary File
    Reading Binary File
    Reading Binary File
    Reading Binary File
    Reading Binary File
    Reading Binary File
    Reading Binary File
    Reading Binary File
    Reading Binary File
    Reading Binary File
    Reading Binary File
    Reading Binary File
    Reading Binary File
    Reading Binary File
    Reading Binary File
    Reading Binary File
    Reading Binary File
    Reading Binary File
    Reading Binary File
    Reading Binary File
    Reading Binary File
    Reading Binary File
    Reading Binary File
    Reading Binary File
    Reading Binary File
    Reading Binary File
    Reading Binary File
    Reading Binary File
    Reading Binary File
    Reading Binary File
    Reading Binary File
    Reading Binary File
    Reading Binary File
    Reading Binary File
    Reading Binary File
    Reading Binary File
    Reading Binary File
    Reading Binary File
    Reading Binary File
    Reading Binary File
    Reading Binary File
    Reading Binary File
    Reading Binary File
    Reading Binary File
    Reading Binary File
    Reading Binary File
    Reading Binary File
    Reading Binary File
    Reading Binary File
    Reading Binary File
    Reading Binary File
    Reading Binary File
    Reading Binary File
    Reading Binary File
    Reading Binary File
    Reading Binary File
    Reading Binary File
    Reading Binary File
    Reading Binary File
    Reading Binary File
    Reading Binary File
    Reading Binary File
    Reading Binary File
    Reading Binary File
    Reading Binary File
    Reading Binary File
    Reading Binary File
    Reading Binary File
    Reading Binary File
    Reading Binary File
    Reading Binary File
    Reading Binary File
    Reading Binary File
    Reading Binary File
    Reading Binary File
    Reading Binary File
    Reading Binary File
    Reading Binary File
    Reading Binary File
    Reading Binary File
    Reading Binary File
    Reading Binary File
    Reading Binary File
    Reading Binary File
    Reading Binary File
    Reading Binary File
    Reading Binary File
    Reading Binary File
    Reading Binary File
    Reading Binary File
    Reading Binary File
    Reading Binary File
    Reading Binary File
    Reading Binary File
    Reading Binary File
    Reading Binary File
    Reading Binary File
    Reading Binary File
    Reading Binary File
    Reading Binary File
    Reading Binary File
    Reading Binary File
    Reading Binary File
    Reading Binary File
    Reading Binary File
    Reading Binary File
    Reading Binary File
    Reading Binary File
    Reading Binary File
    Reading Binary File
    Reading Binary File
    Reading Binary File
    Reading Binary File
    Reading Binary File
    Reading Binary File
    Reading Binary File
    Reading Binary File
    Reading Binary File
    Reading Binary File
    Reading Binary File
    Reading Binary File
    Reading Binary File
    Reading Binary File
    Reading Binary File
    Reading Binary File
    Reading Binary File
    Reading Binary File
    Reading Binary File
    Reading Binary File
    Reading Binary File
    Reading Binary File
    Reading Binary File
    Reading Binary File
    Reading Binary File
    Reading Binary File
    Reading Binary File
    Reading Binary File
    Reading Binary File
    Reading Binary File
    Reading Binary File
    Reading Binary File
    Reading Binary File
    Reading Binary File
    Reading Binary File
    Reading Binary File
    Reading Binary File
    Reading Binary File
    Reading Binary File
    Reading Binary File
    Reading Binary File
    Reading Binary File
    Reading Binary File
    Reading Binary File
    Reading Binary File
    Reading Binary File
    Reading Binary File
    Reading Binary File
    Reading Binary File
    Reading Binary File
    Reading Binary File
    Reading Binary File
    Reading Binary File
    Reading Binary File
    Reading Binary File
    Reading Binary File
    Reading Binary File
    Reading Binary File
    Reading Binary File
    Reading Binary File
    Reading Binary File
    Reading Binary File
    Reading Binary File
    Reading Binary File
    Reading Binary File
    Reading Binary File
    Reading Binary File
    Reading Binary File
    Reading Binary File
    Reading Binary File
    Reading Binary File
    Reading Binary File
    Reading Binary File
    Reading Binary File
    Reading Binary File
    Reading Binary File
    Reading Binary File
    Reading Binary File
    Reading Binary File
    Reading Binary File
    Reading Binary File
    Reading Binary File
    Reading Binary File
    Reading Binary File
    Reading Binary File
    Reading Binary File
    Reading Binary File
    Reading Binary File
    Reading Binary File
    Reading Binary File
    Reading Binary File
    Reading Binary File
    Reading Binary File
    Reading Binary File
    Reading Binary File
    Reading Binary File
    Reading Binary File
    Reading Binary File
    Reading Binary File
    Reading Binary File
    Reading Binary File
    Reading Binary File
    Reading Binary File
    Reading Binary File
    Reading Binary File
    Reading Binary File
    Reading Binary File
    Reading Binary File
    Reading Binary File
    Reading Binary File
    Reading Binary File
    Reading Binary File
    Reading Binary File
    Reading Binary File
    Reading Binary File
    Reading Binary File
    Reading Binary File
    Reading Binary File
    Reading Binary File
    Reading Binary File
    Reading Binary File
    Reading Binary File
    Reading Binary File
    Reading Binary File
    Reading Binary File
    Reading Binary File
    Reading Binary File
    Reading Binary File
    Reading Binary File
    Reading Binary File
    Reading Binary File
    Reading Binary File
    Reading Binary File
    Reading Binary File
    Reading Binary File
    Reading Binary File
    Reading Binary File
    Reading Binary File
    Reading Binary File
    Reading Binary File
    Reading Binary File
    Reading Binary File
    Reading Binary File
    Reading Binary File
    Reading Binary File
    Reading Binary File
    Reading Binary File
    Reading Binary File
    Reading Binary File
    Reading Binary File
    Reading Binary File
    Reading Binary File
    Reading Binary File
    Reading Binary File
    Reading Binary File
    Reading Binary File
    Reading Binary File
    Reading Binary File
    Reading Binary File
    Reading Binary File
    Reading Binary File
    Reading Binary File
    Reading Binary File
    Reading Binary File
    Reading Binary File
    Reading Binary File
    Reading Binary File
    Reading Binary File
    Reading Binary File
    Reading Binary File
    Reading Binary File
    Reading Binary File
    Reading Binary File
    Reading Binary File
    Reading Binary File
    Reading Binary File
    Reading Binary File
    Reading Binary File
    Reading Binary File
    Reading Binary File
    Reading Binary File
    Reading Binary File
    Reading Binary File
    Reading Binary File
    Reading Binary File
    Reading Binary File
    Reading Binary File
    Reading Binary File
    Reading Binary File
    Reading Binary File
    Reading Binary File
    Reading Binary File
    Reading Binary File
    Reading Binary File
    Reading Binary File
    Reading Binary File
    Reading Binary File
    Reading Binary File
    Reading Binary File
    Reading Binary File
    Reading Binary File
    Reading Binary File
    Reading Binary File
    Reading Binary File
    Reading Binary File
    Reading Binary File
    Reading Binary File
    Reading Binary File
    Reading Binary File
    Reading Binary File
    Reading Binary File
    Reading Binary File
    Reading Binary File
    Reading Binary File
    Reading Binary File
    Reading Binary File
    Reading Binary File
    Reading Binary File
    Reading Binary File
    Reading Binary File
    Reading Binary File
    Reading Binary File
    Reading Binary File
    Reading Binary File
    Reading Binary File
    Reading Binary File
    Reading Binary File
    Reading Binary File
    Reading Binary File
    Reading Binary File
    Reading Binary File
    Reading Binary File
    Reading Binary File
    Reading Binary File
    Reading Binary File
    Reading Binary File
    Reading Binary File
    Reading Binary File
    Reading Binary File
    Reading Binary File
    Reading Binary File
    Reading Binary File
    Reading Binary File
    Reading Binary File
    Reading Binary File
    Reading Binary File
    Reading Binary File
    Reading Binary File
    Reading Binary File
    Reading Binary File
    Reading Binary File
    Reading Binary File
    Reading Binary File
    Reading Binary File
    Reading Binary File
    Reading Binary File
    Reading Binary File
    Reading Binary File
    Reading Binary File
    Reading Binary File
    Reading Binary File
    Reading Binary File
    Reading Binary File
    Reading Binary File
    Reading Binary File
    Reading Binary File
    Reading Binary File
    Reading Binary File
    Reading Binary File
    Reading Binary File
    Reading Binary File
    Reading Binary File
    Reading Binary File
    Reading Binary File
    Reading Binary File
    Reading Binary File
    Reading Binary File
    Reading Binary File
    Reading Binary File
    Reading Binary File
    Reading Binary File
    Reading Binary File
    Reading Binary File
    Reading Binary File
    Reading Binary File
    Reading Binary File
    Reading Binary File
    Reading Binary File
    Reading Binary File
    Reading Binary File
    Reading Binary File
    Reading Binary File
    Reading Binary File
    Reading Binary File
    Reading Binary File
    Reading Binary File
    Reading Binary File
    Reading Binary File
    Reading Binary File
    Reading Binary File
    Reading Binary File
    Reading Binary File
    Reading Binary File
    Reading Binary File
    Reading Binary File
    Reading Binary File
    Reading Binary File
    Reading Binary File
    Reading Binary File
    Reading Binary File
    Reading Binary File
    Reading Binary File
    Reading Binary File
    Reading Binary File
    Reading Binary File
    Reading Binary File
    Reading Binary File
    Reading Binary File
    Reading Binary File
    Reading Binary File
    Reading Binary File
    Reading Binary File
    Reading Binary File
    Reading Binary File
    Reading Binary File
    Reading Binary File
    Reading Binary File
    Reading Binary File
    Reading Binary File
    Reading Binary File
    Reading Binary File
    Reading Binary File
    Reading Binary File
    Reading Binary File
    Reading Binary File
    Reading Binary File
    Reading Binary File
    Reading Binary File
    Reading Binary File
    Reading Binary File
    Reading Binary File
    Reading Binary File
    Reading Binary File
    Reading Binary File
    Reading Binary File
    Reading Binary File
    Reading Binary File
    Reading Binary File
    Reading Binary File
    Reading Binary File
    Reading Binary File
    Reading Binary File
    Reading Binary File
    Reading Binary File
    Reading Binary File
    Reading Binary File
    Reading Binary File
    Reading Binary File
    Reading Binary File
    Reading Binary File
    Reading Binary File
    Reading Binary File
    Reading Binary File
    Reading Binary File
    Reading Binary File
    Reading Binary File
    Reading Binary File
    Reading Binary File
    Reading Binary File
    Reading Binary File
    Reading Binary File
    Reading Binary File
    Reading Binary File
    Reading Binary File
    Reading Binary File
    Reading Binary File
    Reading Binary File
    Reading Binary File
    Reading Binary File
    Reading Binary File
    Reading Binary File
    Reading Binary File
    Reading Binary File
    Reading Binary File
    Reading Binary File
    Reading Binary File
    Reading Binary File
    Reading Binary File
    Reading Binary File
    Reading Binary File
    Reading Binary File
    Reading Binary File
    Reading Binary File
    Reading Binary File
    Reading Binary File
    Reading Binary File
    Reading Binary File
    Reading Binary File
    Reading Binary File
    Reading Binary File
    Reading Binary File
    Reading Binary File
    Reading Binary File
    Reading Binary File
    Reading Binary File
    Reading Binary File
    Reading Binary File
    Reading Binary File
    Reading Binary File
    Reading Binary File
    Reading Binary File
    Reading Binary File
    Reading Binary File
    Reading Binary File
    Reading Binary File
    Reading Binary File
    Reading Binary File
    Reading Binary File
    Reading Binary File
    Reading Binary File
    Reading Binary File
    Reading Binary File
    Reading Binary File
    Reading Binary File
    Reading Binary File
    Reading Binary File
    Reading Binary File
    Reading Binary File
    Reading Binary File
    Reading Binary File
    Reading Binary File
    Reading Binary File
    Reading Binary File
    Reading Binary File
    Reading Binary File
    Reading Binary File
    Reading Binary File
    Reading Binary File
    Reading Binary File
    Reading Binary File
    Reading Binary File
    Reading Binary File
    Reading Binary File
    Reading Binary File
    Reading Binary File
    Reading Binary File
    Reading Binary File
    Reading Binary File
    Reading Binary File
    Reading Binary File
    Reading Binary File
    Reading Binary File
    Reading Binary File
    Reading Binary File
    Reading Binary File
    Reading Binary File
    Reading Binary File
    Reading Binary File
    Reading Binary File
    Reading Binary File
    Reading Binary File
    Reading Binary File
    Reading Binary File
    Reading Binary File
    Reading Binary File
    Reading Binary File
    Reading Binary File
    Reading Binary File
    Reading Binary File
    Reading Binary File
    Reading Binary File
    Reading Binary File
    Reading Binary File
    Reading Binary File
    Reading Binary File
    Reading Binary File
    Reading Binary File
    Reading Binary File
    Reading Binary File
    Reading Binary File
    Reading Binary File
    Reading Binary File
    Reading Binary File
    Reading Binary File
    Reading Binary File
    Reading Binary File
    Reading Binary File
    Reading Binary File
    Reading Binary File
    Reading Binary File
    Reading Binary File
    Reading Binary File
    Reading Binary File
    Reading Binary File
    Reading Binary File
    Reading Binary File
    Reading Binary File
    Reading Binary File
    Reading Binary File
    Reading Binary File
    Reading Binary File
    Reading Binary File
    Reading Binary File
    Reading Binary File
    Reading Binary File
    Reading Binary File
    Reading Binary File
    Reading Binary File
    Reading Binary File
    Reading Binary File
    Reading Binary File
    Reading Binary File
    Reading Binary File
    Reading Binary File
    Reading Binary File
    Reading Binary File
    Reading Binary File
    Reading Binary File
    Reading Binary File
    Reading Binary File
    Reading Binary File
    Reading Binary File
    Reading Binary File
    Reading Binary File
    Reading Binary File
    Reading Binary File
    Reading Binary File
    Reading Binary File
    Reading Binary File
    Reading Binary File
    Reading Binary File
    Reading Binary File
    Reading Binary File
    Reading Binary File
    Reading Binary File
    Reading Binary File
    Reading Binary File
    Reading Binary File
    Reading Binary File
    Reading Binary File
    Reading Binary File
    Reading Binary File
    Reading Binary File
    Reading Binary File
    Reading Binary File
    Reading Binary File
    Reading Binary File
    Reading Binary File
    Reading Binary File
    Reading Binary File
    Reading Binary File
    Reading Binary File
    Reading Binary File
    Reading Binary File
    Reading Binary File
    Reading Binary File
    Reading Binary File
    Reading Binary File
    Reading Binary File
    Reading Binary File
    Reading Binary File
    Reading Binary File
    Reading Binary File
    Reading Binary File
    Reading Binary File
    Reading Binary File
    Reading Binary File
    Reading Binary File
    Reading Binary File
    Reading Binary File
    Reading Binary File
    Reading Binary File
    Reading Binary File
    Reading Binary File
    Reading Binary File
    Reading Binary File
    Reading Binary File
    Reading Binary File
    Reading Binary File
    Reading Binary File
    Reading Binary File
    Reading Binary File
    Reading Binary File
    Reading Binary File
    Reading Binary File
    Reading Binary File
    Reading Binary File
    Reading Binary File
    Reading Binary File
    Reading Binary File
    Reading Binary File
    Reading Binary File
    Reading Binary File
    Reading Binary File
    Reading Binary File
    Reading Binary File
    Reading Binary File
    Reading Binary File
    Reading Binary File
    Reading Binary File
    Reading Binary File
    Reading Binary File
    Reading Binary File
    Reading Binary File
    Reading Binary File
    Reading Binary File
    Reading Binary File
    Reading Binary File
    Reading Binary File
    Reading Binary File
    Reading Binary File
    Reading Binary File
    Reading Binary File
    Reading Binary File
    Reading Binary File
    Reading Binary File
    Reading Binary File
    Reading Binary File
    Reading Binary File
    Reading Binary File
    Reading Binary File
    Reading Binary File
    Reading Binary File
    Reading Binary File
    Reading Binary File
    Reading Binary File
    Reading Binary File
    Reading Binary File
    Reading Binary File
    Reading Binary File
    Reading Binary File
    Reading Binary File
    Reading Binary File
    Reading Binary File
    Reading Binary File
    Reading Binary File
    Reading Binary File
    Reading Binary File
    Reading Binary File
    Reading Binary File
    Reading Binary File
    Reading Binary File
    Reading Binary File
    Reading Binary File
    Reading Binary File
    Reading Binary File
    Reading Binary File
    Reading Binary File
    Reading Binary File
    Reading Binary File
    Reading Binary File
    Reading Binary File
    Reading Binary File
    Reading Binary File
    Reading Binary File
    Reading Binary File
    Reading Binary File
    Reading Binary File
    Reading Binary File
    Reading Binary File
    Reading Binary File
    Reading Binary File
    Reading Binary File
    Reading Binary File
    Reading Binary File
    Reading Binary File
    Reading Binary File
    Reading Binary File
    Reading Binary File
    Reading Binary File
    Reading Binary File
    Reading Binary File
    Reading Binary File
    Reading Binary File
    Reading Binary File
    Reading Binary File
    Reading Binary File
    Reading Binary File
    Reading Binary File
    Reading Binary File
    Reading Binary File
    Reading Binary File
    Reading Binary File
    Reading Binary File
    Reading Binary File
    Reading Binary File
    Reading Binary File
    Reading Binary File
    Reading Binary File
    Reading Binary File
    Reading Binary File
    Reading Binary File
    Reading Binary File
    Reading Binary File
    Reading Binary File
    Reading Binary File
    Reading Binary File
    Reading Binary File
    Reading Binary File
    Reading Binary File
    Reading Binary File
    Reading Binary File
    Reading Binary File
    Reading Binary File
    Reading Binary File
    Reading Binary File
    Reading Binary File
    Reading Binary File
    Reading Binary File
    Reading Binary File
    Reading Binary File
    Reading Binary File
    Reading Binary File
    Reading Binary File
    Reading Binary File
    Reading Binary File
    Reading Binary File
    Reading Binary File
    Reading Binary File
    Reading Binary File
    Reading Binary File
    Reading Binary File
    Reading Binary File
    Reading Binary File
    Reading Binary File
    Reading Binary File
    Reading Binary File
    Reading Binary File
    Reading Binary File
    Reading Binary File
    Reading Binary File
    Reading Binary File
    Reading Binary File
    Reading Binary File
    Reading Binary File
    Reading Binary File
    Reading Binary File
    Reading Binary File
    Reading Binary File
    Reading Binary File
    Reading Binary File
    Reading Binary File
    Reading Binary File
    Reading Binary File
    Reading Binary File
    Reading Binary File
    Reading Binary File
    Reading Binary File
    Reading Binary File
    Reading Binary File
    Reading Binary File
    Reading Binary File
    Reading Binary File
    Reading Binary File
    Reading Binary File
    Reading Binary File
    Reading Binary File
    Reading Binary File
    Reading Binary File
    Reading Binary File
    Reading Binary File
    Reading Binary File
    Reading Binary File
    Reading Binary File
    Reading Binary File
    Reading Binary File
    Reading Binary File
    Reading Binary File
    Reading Binary File
    Reading Binary File
    Reading Binary File
    Reading Binary File
    Reading Binary File
    Reading Binary File
    Reading Binary File
    Reading Binary File
    Reading Binary File
    Reading Binary File
    Reading Binary File
    Reading Binary File
    Reading Binary File
    Reading Binary File
    Reading Binary File
    Reading Binary File
    Reading Binary File
    Reading Binary File
    Reading Binary File
    Reading Binary File
    Reading Binary File
    Reading Binary File
    Reading Binary File
    Reading Binary File
    Reading Binary File
    Reading Binary File
    Reading Binary File
    Reading Binary File
    Reading Binary File
    Reading Binary File
    Reading Binary File
    Reading Binary File
    Reading Binary File
    Reading Binary File
    Reading Binary File
    Reading Binary File
    Reading Binary File
    Reading Binary File
    Reading Binary File
    Reading Binary File
    Reading Binary File
    Reading Binary File
    Reading Binary File
    Reading Binary File
    Reading Binary File
    Reading Binary File
    Reading Binary File
    Reading Binary File
    Reading Binary File
    Reading Binary File
    Reading Binary File
    Reading Binary File
    Reading Binary File
    Reading Binary File
    Reading Binary File
    Reading Binary File
    Reading Binary File
    Reading Binary File
    Reading Binary File
    Reading Binary File
    Reading Binary File
    Reading Binary File
    Reading Binary File
    Reading Binary File
    Reading Binary File
    Reading Binary File
    Reading Binary File
    Reading Binary File
    Reading Binary File
    Reading Binary File
    Reading Binary File
    Reading Binary File
    Reading Binary File
    Reading Binary File
    Reading Binary File
    Reading Binary File
    Reading Binary File
    Reading Binary File
    Reading Binary File
    Reading Binary File
    Reading Binary File
    Reading Binary File
    Reading Binary File
    Reading Binary File
    Reading Binary File
    Reading Binary File
    Reading Binary File
    Reading Binary File
    Reading Binary File
    Reading Binary File
    Reading Binary File
    Reading Binary File
    Reading Binary File
    Reading Binary File
    Reading Binary File
    Reading Binary File
    Reading Binary File
    Reading Binary File
    Reading Binary File
    Reading Binary File
    Reading Binary File
    Reading Binary File
    Reading Binary File
    Reading Binary File
    Reading Binary File
    Reading Binary File
    Reading Binary File
    Reading Binary File
    Reading Binary File
    Reading Binary File
    Reading Binary File
    Reading Binary File
    Reading Binary File
    Reading Binary File
    Reading Binary File
    Reading Binary File
    Reading Binary File
    Reading Binary File
    Reading Binary File
    Reading Binary File
    Reading Binary File
    Reading Binary File
    Reading Binary File
    Reading Binary File
    Reading Binary File
    Reading Binary File
    Reading Binary File
    Reading Binary File
    Reading Binary File
    Reading Binary File
    Reading Binary File
    Reading Binary File
    Reading Binary File
    Reading Binary File
    Reading Binary File
    Reading Binary File
    Reading Binary File
    Reading Binary File
    Reading Binary File
    Reading Binary File
    Reading Binary File
    Reading Binary File
    Reading Binary File
    Reading Binary File
    Reading Binary File
    Reading Binary File
    Reading Binary File
    Reading Binary File
    Reading Binary File
    Reading Binary File
    Reading Binary File
    Reading Binary File
    Reading Binary File
    Reading Binary File
    Reading Binary File
    Reading Binary File
    Reading Binary File
    Reading Binary File
    Reading Binary File
    Reading Binary File
    Reading Binary File
    Reading Binary File
    Reading Binary File
    Reading Binary File
    Reading Binary File
    Reading Binary File
    Reading Binary File
    Reading Binary File
    Reading Binary File
    Reading Binary File
    Reading Binary File
    Reading Binary File
    Reading Binary File
    Reading Binary File
    Reading Binary File
    Reading Binary File
    Reading Binary File
    Reading Binary File
    Reading Binary File
    Reading Binary File
    Reading Binary File
    Reading Binary File
    Reading Binary File
    Reading Binary File
    Reading Binary File
    Reading Binary File
    Reading Binary File
    Reading Binary File
    Reading Binary File
    Reading Binary File
    Reading Binary File
    Reading Binary File
    Reading Binary File
    Reading Binary File
    Reading Binary File
    Reading Binary File
    Reading Binary File
    Reading Binary File
    Reading Binary File
    Reading Binary File
    Reading Binary File
    Reading Binary File
    Reading Binary File
    Reading Binary File
    Reading Binary File
    Reading Binary File
    Reading Binary File
    Reading Binary File
    Reading Binary File
    Reading Binary File
    Reading Binary File
    Reading Binary File
    Reading Binary File
    Reading Binary File
    Reading Binary File
    Reading Binary File
    Reading Binary File
    Reading Binary File
    Reading Binary File
    Reading Binary File
    Reading Binary File
    Reading Binary File
    Reading Binary File
    Reading Binary File
    Reading Binary File
    Reading Binary File
    Reading Binary File
    Reading Binary File
    Reading Binary File
    Reading Binary File
    Reading Binary File
    Reading Binary File
    Reading Binary File
    Reading Binary File
    Reading Binary File
    Reading Binary File
    Reading Binary File
    Reading Binary File
    Reading Binary File
    Reading Binary File
    Reading Binary File
    Reading Binary File
    Reading Binary File
    Reading Binary File
    Reading Binary File
    Reading Binary File
    Reading Binary File
    Reading Binary File
    Reading Binary File
    Reading Binary File
    Reading Binary File
    Reading Binary File
    Reading Binary File
    Reading Binary File
    Reading Binary File
    Reading Binary File
    Reading Binary File
    Reading Binary File
    Reading Binary File
    Reading Binary File
    Reading Binary File
    Reading Binary File
    Reading Binary File
    Reading Binary File
    Reading Binary File
    Reading Binary File
    Reading Binary File
    Reading Binary File
    Reading Binary File
    Reading Binary File
    Reading Binary File
    Reading Binary File
    Reading Binary File
    Reading Binary File
    Reading Binary File
    Reading Binary File
    Reading Binary File
    Reading Binary File
    Reading Binary File
    Reading Binary File
    Reading Binary File
    Reading Binary File
    Reading Binary File
    Reading Binary File
    Reading Binary File
    Reading Binary File
    Reading Binary File
    Reading Binary File
    Reading Binary File
    Reading Binary File
    Reading Binary File
    Reading Binary File
    Reading Binary File
    Reading Binary File
    Reading Binary File
    Reading Binary File
    Reading Binary File
    Reading Binary File
    Reading Binary File
    Reading Binary File
    Reading Binary File
    Reading Binary File
    Reading Binary File
    Reading Binary File
    Reading Binary File
    Reading Binary File
    Reading Binary File
    Reading Binary File
    Reading Binary File
    Reading Binary File
    Reading Binary File
    Reading Binary File
    Reading Binary File
    Reading Binary File
    Reading Binary File
    Reading Binary File
    Reading Binary File
    Reading Binary File
    Reading Binary File
    Reading Binary File
    Reading Binary File
    Reading Binary File
    Reading Binary File
    Reading Binary File
    Reading Binary File
    Reading Binary File
    Reading Binary File
    Reading Binary File
    Reading Binary File
    Reading Binary File
    Reading Binary File
    Reading Binary File
    Reading Binary File
    Reading Binary File
    Reading Binary File
    Reading Binary File
    Reading Binary File
    Reading Binary File
    Reading Binary File
    Reading Binary File
    Reading Binary File
    Reading Binary File
    Reading Binary File
    Reading Binary File
    Reading Binary File
    Reading Binary File
    Reading Binary File
    Reading Binary File
    Reading Binary File
    Reading Binary File
    Reading Binary File
    Reading Binary File
    Reading Binary File
    Reading Binary File
    Reading Binary File
    Reading Binary File
    Reading Binary File
    Reading Binary File
    Reading Binary File
    Reading Binary File
    Reading Binary File
    Reading Binary File
    Reading Binary File
    Reading Binary File
    Reading Binary File
    Reading Binary File
    Reading Binary File
    Reading Binary File
    Reading Binary File
    Reading Binary File
    Reading Binary File
    Reading Binary File
    Reading Binary File
    Reading Binary File
    Reading Binary File
    Reading Binary File
    Reading Binary File
    Reading Binary File
    Reading Binary File
    Reading Binary File
    Reading Binary File
    Reading Binary File
    Reading Binary File
    Reading Binary File
    Reading Binary File
    Reading Binary File
    Reading Binary File
    Reading Binary File
    Reading Binary File
    Reading Binary File
    Reading Binary File
    Reading Binary File
    Reading Binary File
    Reading Binary File
    Reading Binary File
    Reading Binary File
    Reading Binary File
    Reading Binary File
    Reading Binary File
    Reading Binary File
    Reading Binary File
    Reading Binary File
    Reading Binary File
    Reading Binary File
    Reading Binary File
    Reading Binary File
    Reading Binary File
    Reading Binary File
    Reading Binary File
    Reading Binary File
    Reading Binary File
    Reading Binary File
    Reading Binary File
    Reading Binary File
    Reading Binary File
    Reading Binary File
    Reading Binary File
    Reading Binary File
    Reading Binary File
    Reading Binary File
    Reading Binary File
    Reading Binary File
    Reading Binary File
    Reading Binary File
    Reading Binary File
    Reading Binary File
    Reading Binary File
    Reading Binary File
    Reading Binary File
    Reading Binary File
    Reading Binary File
    Reading Binary File
    Reading Binary File
    Reading Binary File
    Reading Binary File
    Reading Binary File
    Reading Binary File
    Reading Binary File
    Reading Binary File
    Reading Binary File
    Reading Binary File
    Reading Binary File
    Reading Binary File
    Reading Binary File
    Reading Binary File
    Reading Binary File
    Reading Binary File
    Reading Binary File
    Reading Binary File
    Reading Binary File
    Reading Binary File
    Reading Binary File
    Reading Binary File
    Reading Binary File
    Reading Binary File
    Reading Binary File
    Reading Binary File
    Reading Binary File
    Reading Binary File
    Reading Binary File
    Reading Binary File
    Reading Binary File
    Reading Binary File
    Reading Binary File
    Reading Binary File
    Reading Binary File
    Reading Binary File
    Reading Binary File
    Reading Binary File
    Reading Binary File
    Reading Binary File
    Reading Binary File
    Reading Binary File
    Reading Binary File
    Reading Binary File
    Reading Binary File
    Reading Binary File
    Reading Binary File
    Reading Binary File
    Reading Binary File
    Reading Binary File
    Reading Binary File
    Reading Binary File
    Reading Binary File
    Reading Binary File
    Reading Binary File
    Reading Binary File
    Reading Binary File
    Reading Binary File
    Reading Binary File
    Reading Binary File
    Reading Binary File
    Reading Binary File
    Reading Binary File
    Reading Binary File
    Reading Binary File
    Reading Binary File
    Reading Binary File
    Reading Binary File
    Reading Binary File
    Reading Binary File
    Reading Binary File
    Reading Binary File
    Reading Binary File
    Reading Binary File
    Reading Binary File
    Reading Binary File
    Reading Binary File
    Reading Binary File
    Reading Binary File
    Reading Binary File
    Reading Binary File
    Reading Binary File
    Reading Binary File
    Reading Binary File
    Reading Binary File
    Reading Binary File
    Reading Binary File
    Reading Binary File
    Reading Binary File
    Reading Binary File
    Reading Binary File
    Reading Binary File
    Reading Binary File
    Reading Binary File
    Reading Binary File
    Reading Binary File
    Reading Binary File
    Reading Binary File
    Reading Binary File
    Reading Binary File
    Reading Binary File
    Reading Binary File
    Reading Binary File
    Reading Binary File
    Reading Binary File
    Reading Binary File
    Reading Binary File
    Reading Binary File
    Reading Binary File
    Reading Binary File
    Reading Binary File
    Reading Binary File
    Reading Binary File
    Reading Binary File
    Reading Binary File
    Reading Binary File
    Reading Binary File
    Reading Binary File
    Reading Binary File
    Reading Binary File
    Reading Binary File
    Reading Binary File
    Reading Binary File
    Reading Binary File
    Reading Binary File
    Reading Binary File
    Reading Binary File
    Reading Binary File
    Reading Binary File
    Reading Binary File
    Reading Binary File
    Reading Binary File
    Reading Binary File
    Reading Binary File
    Reading Binary File
    Reading Binary File
    Reading Binary File
    Reading Binary File
    Reading Binary File
    Reading Binary File
    Reading Binary File
    Reading Binary File
    Reading Binary File
    Reading Binary File
    Reading Binary File
    Reading Binary File
    Reading Binary File
    Reading Binary File
    Reading Binary File
    Reading Binary File
    Reading Binary File
    Reading Binary File
    Reading Binary File
    Reading Binary File
    Reading Binary File
    Reading Binary File
    Reading Binary File
    Reading Binary File
    Reading Binary File
    Reading Binary File
    Reading Binary File
    Reading Binary File
    Reading Binary File
    Reading Binary File
    Reading Binary File
    Reading Binary File
    Reading Binary File
    Reading Binary File
    Reading Binary File
    Reading Binary File
    Reading Binary File
    Reading Binary File
    Reading Binary File
    Reading Binary File
    Reading Binary File
    Reading Binary File
    Reading Binary File
    Reading Binary File
    Reading Binary File
    Reading Binary File
    Reading Binary File
    Reading Binary File
    Reading Binary File
    Reading Binary File
    Reading Binary File
    Reading Binary File
    Reading Binary File
    Reading Binary File
    Reading Binary File
    Reading Binary File
    Reading Binary File
    Reading Binary File
    Reading Binary File
    Reading Binary File
    Reading Binary File
    Reading Binary File
    Reading Binary File
    Reading Binary File
    Reading Binary File
    Reading Binary File
    Reading Binary File
    Reading Binary File
    Reading Binary File
    Reading Binary File
    Reading Binary File
    Reading Binary File
    Reading Binary File
    Reading Binary File
    Reading Binary File
    Reading Binary File
    Reading Binary File
    Reading Binary File
    Reading Binary File
    Reading Binary File
    Reading Binary File
    Reading Binary File
    Reading Binary File
    Reading Binary File
    Reading Binary File
    Reading Binary File
    Reading Binary File
    Reading Binary File
    Reading Binary File
    Reading Binary File
    Reading Binary File
    Reading Binary File
    Reading Binary File
    Reading Binary File
    Reading Binary File
    Reading Binary File
    Reading Binary File
    Reading Binary File
    Reading Binary File
    Reading Binary File
    Reading Binary File
    Reading Binary File
    Reading Binary File
    Reading Binary File
    Reading Binary File
    Reading Binary File
    Reading Binary File
    Reading Binary File
    Reading Binary File
    Reading Binary File
    Reading Binary File
    Reading Binary File
    Reading Binary File
    Reading Binary File
    Reading Binary File
    Reading Binary File
    Reading Binary File
    Reading Binary File
    Reading Binary File
    Reading Binary File
    Reading Binary File
    Reading Binary File
    Reading Binary File
    Reading Binary File
    Reading Binary File
    Reading Binary File
    Reading Binary File
    Reading Binary File
    Reading Binary File
    Reading Binary File
    Reading Binary File
    Reading Binary File
    Reading Binary File
    Reading Binary File
    Reading Binary File
    Reading Binary File
    Reading Binary File
    Reading Binary File
    Reading Binary File
    Reading Binary File
    Reading Binary File
    Reading Binary File
    Reading Binary File
    Reading Binary File
    Reading Binary File
    Reading Binary File
    Reading Binary File
    Reading Binary File
    Reading Binary File
    Reading Binary File
    Reading Binary File
    Reading Binary File
    Reading Binary File
    Reading Binary File
    Reading Binary File
    Reading Binary File
    Reading Binary File
    Reading Binary File
    Reading Binary File
    Reading Binary File
    Reading Binary File
    Reading Binary File
    Reading Binary File
    Reading Binary File
    Reading Binary File
    Reading Binary File
    Reading Binary File
    Reading Binary File
    Reading Binary File
    Reading Binary File
    Reading Binary File
    Reading Binary File
    Reading Binary File
    Reading Binary File
    Reading Binary File
    Reading Binary File
    Reading Binary File
    Reading Binary File
    Reading Binary File
    Reading Binary File
    Reading Binary File
    Reading Binary File
    Reading Binary File
    Reading Binary File
    Reading Binary File
    Reading Binary File
    Reading Binary File
    Reading Binary File
    Reading Binary File
    Reading Binary File
    Reading Binary File
    Reading Binary File
    Reading Binary File
    Reading Binary File
    Reading Binary File
    Reading Binary File
    Reading Binary File
    Reading Binary File
    Reading Binary File
    Reading Binary File
    Reading Binary File
    Reading Binary File
    Reading Binary File
    Reading Binary File
    Reading Binary File
    Reading Binary File
    Reading Binary File
    Reading Binary File
    Reading Binary File
    Reading Binary File
    Reading Binary File
    Reading Binary File
    Reading Binary File
    Reading Binary File
    Reading Binary File
    Reading Binary File
    Reading Binary File
    Reading Binary File
    Reading Binary File
    Reading Binary File
    Reading Binary File
    Reading Binary File
    Reading Binary File
    Reading Binary File
    Reading Binary File
    Reading Binary File
    Reading Binary File
    Reading Binary File
    Reading Binary File
    Reading Binary File
    Reading Binary File
    Reading Binary File
    Reading Binary File
    Reading Binary File
    Reading Binary File
    Reading Binary File
    Reading Binary File
    Reading Binary File
    Reading Binary File
    Reading Binary File
    Reading Binary File
    Reading Binary File
    Reading Binary File
    Reading Binary File
    Reading Binary File
    Reading Binary File
    Reading Binary File
    Reading Binary File
    Reading Binary File
    Reading Binary File
    Reading Binary File
    Reading Binary File
    Reading Binary File
    Reading Binary File
    Reading Binary File
    Reading Binary File
    Reading Binary File
    Reading Binary File
    Reading Binary File
    Reading Binary File
    Reading Binary File
    Reading Binary File
    Reading Binary File
    Reading Binary File
    Reading Binary File
    Reading Binary File
    Reading Binary File
    Reading Binary File
    Reading Binary File
    Reading Binary File
    Reading Binary File
    Reading Binary File
    Reading Binary File
    Reading Binary File
    Reading Binary File
    Reading Binary File
    Reading Binary File
    Reading Binary File
    Reading Binary File
    Reading Binary File
    Reading Binary File
    Reading Binary File
    Reading Binary File
    Reading Binary File
    Reading Binary File
    Reading Binary File
    Reading Binary File
    Reading Binary File
    Reading Binary File
    Reading Binary File
    Reading Binary File
    Reading Binary File
    Reading Binary File
    Reading Binary File
    Reading Binary File
    Reading Binary File
    Reading Binary File
    Reading Binary File
    Reading Binary File
    Reading Binary File
    Reading Binary File
    Reading Binary File
    Reading Binary File
    Reading Binary File
    Reading Binary File
    Reading Binary File
    Reading Binary File
    Reading Binary File
    Reading Binary File
    Reading Binary File
    Reading Binary File
    Reading Binary File
    Reading Binary File
    Reading Binary File
    Reading Binary File
    Reading Binary File
    Reading Binary File
    Reading Binary File
    Reading Binary File
    Reading Binary File
    Reading Binary File
    Reading Binary File
    Reading Binary File
    Reading Binary File
    Reading Binary File
    Reading Binary File
    Reading Binary File
    Reading Binary File
    Reading Binary File
    Reading Binary File
    Reading Binary File
    Reading Binary File
    Reading Binary File
    Reading Binary File
    Reading Binary File
    Reading Binary File
    Reading Binary File
    Reading Binary File
    Reading Binary File
    Reading Binary File
    Reading Binary File
    Reading Binary File
    Reading Binary File
    Reading Binary File
    Reading Binary File
    Reading Binary File
    Reading Binary File
    Reading Binary File
    Reading Binary File
    Reading Binary File
    Reading Binary File
    Reading Binary File
    Reading Binary File
    Reading Binary File
    Reading Binary File
    Reading Binary File
    Reading Binary File
    Reading Binary File
    Reading Binary File
    Reading Binary File
    Reading Binary File
    Reading Binary File
    Reading Binary File
    Reading Binary File
    Reading Binary File
    Reading Binary File
    Reading Binary File
    Reading Binary File
    Reading Binary File
    Reading Binary File
    Reading Binary File
    Reading Binary File
    Reading Binary File
    Reading Binary File
    Reading Binary File
    Reading Binary File
    Reading Binary File
    Reading Binary File
    Reading Binary File
    Reading Binary File
    Reading Binary File
    Reading Binary File
    Reading Binary File
    Reading Binary File
    Reading Binary File
    Reading Binary File
    Reading Binary File
    Reading Binary File
    Reading Binary File
    Reading Binary File
    Reading Binary File
    Reading Binary File
    Reading Binary File
    Reading Binary File
    Reading Binary File
    Reading Binary File
    Reading Binary File
    Reading Binary File
    Reading Binary File
    Reading Binary File
    Reading Binary File
    Reading Binary File
    Reading Binary File
    Reading Binary File
    Reading Binary File
    Reading Binary File
    Reading Binary File
    Reading Binary File
    Reading Binary File
    Reading Binary File
    Reading Binary File
    Reading Binary File
    Reading Binary File
    Reading Binary File
    Reading Binary File
    Reading Binary File
    Reading Binary File
    Reading Binary File
    Reading Binary File
    Reading Binary File
    Reading Binary File
    Reading Binary File
    Reading Binary File
    Reading Binary File
    Reading Binary File
    Reading Binary File
    Reading Binary File
    Reading Binary File
    Reading Binary File
    Reading Binary File
    Reading Binary File
    Reading Binary File
    Reading Binary File
    Reading Binary File
    Reading Binary File
    Reading Binary File
    Reading Binary File
    Reading Binary File
    Reading Binary File
    Reading Binary File
    Reading Binary File
    Reading Binary File
    Reading Binary File
    Reading Binary File
    Reading Binary File
    Reading Binary File
    Reading Binary File
    Reading Binary File
    Reading Binary File
    Reading Binary File
    Reading Binary File
    Reading Binary File
    Reading Binary File
    Reading Binary File
    Reading Binary File
    Reading Binary File
    Reading Binary File
    Reading Binary File
    Reading Binary File
    Reading Binary File
    Reading Binary File
    Reading Binary File
    Reading Binary File
    Reading Binary File
    Reading Binary File
    Reading Binary File
    Reading Binary File
    Reading Binary File
    Reading Binary File
    Reading Binary File
    Reading Binary File
    Reading Binary File
    Reading Binary File
    Reading Binary File
    Reading Binary File
    Reading Binary File
    Reading Binary File
    Reading Binary File
    Reading Binary File
    Reading Binary File
    Reading Binary File
    Reading Binary File
    Reading Binary File
    Reading Binary File
    Reading Binary File
    Reading Binary File
    Reading Binary File
    Reading Binary File
    Reading Binary File
    Reading Binary File
    Reading Binary File
    Reading Binary File
    Reading Binary File
    Reading Binary File
    Reading Binary File
    Reading Binary File
    Reading Binary File
    Reading Binary File
    Reading Binary File
    Reading Binary File
    Reading Binary File
    Reading Binary File
    Reading Binary File
    Reading Binary File
    Reading Binary File
    Reading Binary File
    Reading Binary File
    Reading Binary File
    Reading Binary File
    Reading Binary File
    Reading Binary File
    Reading Binary File
    Reading Binary File
    Reading Binary File
    Reading Binary File
    Reading Binary File
    Reading Binary File
    Reading Binary File
    Reading Binary File
    Reading Binary File
    Reading Binary File
    Reading Binary File
    Reading Binary File
    Reading Binary File
    Reading Binary File
    Reading Binary File
    Reading Binary File
    Reading Binary File
    Reading Binary File
    Reading Binary File
    Reading Binary File
    Reading Binary File
    Reading Binary File
    Reading Binary File
    Reading Binary File
    Reading Binary File
    Reading Binary File
    Reading Binary File
    Reading Binary File
    Reading Binary File
    Reading Binary File
    Reading Binary File
    Reading Binary File
    Reading Binary File
    Reading Binary File
    Reading Binary File
    Reading Binary File
    Reading Binary File
    Reading Binary File
    Reading Binary File
    Reading Binary File
    Reading Binary File
    Reading Binary File
    Reading Binary File
    Reading Binary File
    Reading Binary File
    Reading Binary File
    Reading Binary File
    Reading Binary File
    Reading Binary File
    Reading Binary File
    Reading Binary File
    Reading Binary File
    Reading Binary File
    Reading Binary File
    Reading Binary File
    Reading Binary File
    Reading Binary File
    Reading Binary File
    Reading Binary File
    Reading Binary File
    Reading Binary File
    Reading Binary File
    Reading Binary File
    Reading Binary File
    Reading Binary File
    Reading Binary File
    Reading Binary File
    Reading Binary File
    Reading Binary File
    Reading Binary File
    Reading Binary File
    Reading Binary File
    Reading Binary File
    Reading Binary File
    Reading Binary File
    Reading Binary File
    Reading Binary File
    Reading Binary File
    Reading Binary File
    Reading Binary File
    Reading Binary File
    Reading Binary File
    Reading Binary File
    Reading Binary File
    Reading Binary File
    Reading Binary File
    Reading Binary File
    Reading Binary File
    Reading Binary File
    Reading Binary File
    Reading Binary File
    Reading Binary File
    Reading Binary File
    Reading Binary File
    Reading Binary File
    Reading Binary File
    Reading Binary File
    Reading Binary File
    Reading Binary File
    Reading Binary File
    Reading Binary File
    Reading Binary File
    Reading Binary File
    Reading Binary File
    Reading Binary File
    Reading Binary File
    Reading Binary File
    Reading Binary File
    Reading Binary File
    Reading Binary File
    Reading Binary File
    Reading Binary File
    Reading Binary File
    Reading Binary File
    Reading Binary File
    Reading Binary File
    Reading Binary File
    Reading Binary File
    Reading Binary File
    Reading Binary File
    Reading Binary File
    Reading Binary File
    Reading Binary File
    Reading Binary File
    Reading Binary File
    Reading Binary File
    Reading Binary File
    Reading Binary File
    Reading Binary File
    Reading Binary File
    Reading Binary File
    Reading Binary File
    Reading Binary File
    Reading Binary File
    Reading Binary File
    Reading Binary File
    Reading Binary File
    Reading Binary File
    Reading Binary File
    Reading Binary File
    Reading Binary File
    Reading Binary File
    Reading Binary File
    Reading Binary File
    Reading Binary File
    Reading Binary File
    Reading Binary File
    Reading Binary File
    Reading Binary File
    Reading Binary File
    Reading Binary File
    Reading Binary File
    Reading Binary File
    Reading Binary File
    Reading Binary File
    Reading Binary File
    Reading Binary File
    Reading Binary File
    Reading Binary File
    Reading Binary File
    Reading Binary File
    Reading Binary File
    Reading Binary File
    Reading Binary File
    Reading Binary File
    Reading Binary File
    Reading Binary File
    Reading Binary File
    Reading Binary File
    Reading Binary File
    Reading Binary File
    Reading Binary File
    Reading Binary File
    Reading Binary File
    Reading Binary File
    Reading Binary File
    Reading Binary File
    Reading Binary File
    Reading Binary File
    Reading Binary File
    Reading Binary File
    Reading Binary File
    Reading Binary File
    Reading Binary File
    Reading Binary File
    Reading Binary File
    Reading Binary File
    Reading Binary File
    Reading Binary File
    Reading Binary File
    Reading Binary File
    Reading Binary File
    Reading Binary File
    Reading Binary File
    Reading Binary File
    Reading Binary File
    Reading Binary File
    Reading Binary File
    Reading Binary File
    Reading Binary File
    Reading Binary File
    Reading Binary File
    Reading Binary File
    Reading Binary File
    Reading Binary File
    Reading Binary File
    Reading Binary File
    Reading Binary File
    Reading Binary File
    Reading Binary File
    Reading Binary File
    Reading Binary File
    Reading Binary File
    Reading Binary File
    Reading Binary File
    Reading Binary File
    Reading Binary File
    Reading Binary File
    Reading Binary File
    Reading Binary File
    Reading Binary File
    Reading Binary File
    Reading Binary File
    Reading Binary File
    Reading Binary File
    Reading Binary File
    Reading Binary File
    Reading Binary File
    Reading Binary File
    Reading Binary File
    Reading Binary File
    Reading Binary File
    Reading Binary File
    Reading Binary File
    Reading Binary File
    Reading Binary File
    Reading Binary File
    Reading Binary File
    Reading Binary File
    Reading Binary File
    Reading Binary File
    Reading Binary File
    Reading Binary File
    Reading Binary File
    Reading Binary File
    Reading Binary File
    Reading Binary File
    Reading Binary File
    Reading Binary File
    Reading Binary File
    Reading Binary File
    Reading Binary File
    Reading Binary File
    Reading Binary File
    Reading Binary File
    Reading Binary File
    Reading Binary File
    Reading Binary File
    Reading Binary File
    Reading Binary File
    Reading Binary File
    Reading Binary File
    Reading Binary File
    Reading Binary File
    Reading Binary File
    Reading Binary File
    Reading Binary File
    Reading Binary File
    Reading Binary File
    Reading Binary File
    Reading Binary File
    Reading Binary File
    Reading Binary File
    Reading Binary File
    Reading Binary File
    Reading Binary File
    Reading Binary File
    Reading Binary File
    Reading Binary File
    Reading Binary File
    Reading Binary File
    Reading Binary File
    Reading Binary File
    Reading Binary File
    Reading Binary File
    Reading Binary File
    Reading Binary File
    Reading Binary File
    Reading Binary File
    Reading Binary File
    Reading Binary File
    Reading Binary File
    Reading Binary File
    Reading Binary File
    Reading Binary File
    Reading Binary File
    Reading Binary File
    Reading Binary File
    Reading Binary File
    Reading Binary File
    Reading Binary File
    Reading Binary File
    Reading Binary File
    Reading Binary File
    Reading Binary File
    Reading Binary File
    Reading Binary File
    Reading Binary File
    Reading Binary File
    Reading Binary File
    Reading Binary File
    Reading Binary File
    Reading Binary File
    Reading Binary File
    Reading Binary File
    Reading Binary File
    Reading Binary File
    Reading Binary File
    Reading Binary File
    Reading Binary File
    Reading Binary File
    Reading Binary File
    Reading Binary File
    Reading Binary File
    Reading Binary File
    Reading Binary File
    Reading Binary File
    Reading Binary File
    Reading Binary File
    Reading Binary File
    Reading Binary File
    Reading Binary File
    Reading Binary File
    Reading Binary File
    Reading Binary File
    Reading Binary File
    Reading Binary File
    Reading Binary File
    Reading Binary File
    Reading Binary File
    Reading Binary File
    Reading Binary File
    Reading Binary File
    Reading Binary File
    Reading Binary File
    Reading Binary File
    Reading Binary File
    Reading Binary File
    Reading Binary File
    Reading Binary File
    Reading Binary File
    Reading Binary File
    Reading Binary File
    Reading Binary File
    Reading Binary File
    Reading Binary File
    Reading Binary File
    Reading Binary File
    Reading Binary File
    Reading Binary File
    Reading Binary File
    Reading Binary File
    Reading Binary File
    Reading Binary File
    Reading Binary File
    Reading Binary File
    Reading Binary File
    Reading Binary File
    Reading Binary File
    Reading Binary File
    Reading Binary File
    Reading Binary File
    Reading Binary File
    Reading Binary File
    Reading Binary File
    Reading Binary File
    Reading Binary File
    Reading Binary File
    Reading Binary File
    Reading Binary File
    Reading Binary File
    Reading Binary File
    Reading Binary File
    Reading Binary File
    Reading Binary File
    Reading Binary File
    Reading Binary File
    Reading Binary File
    Reading Binary File
    Reading Binary File
    Reading Binary File
    Reading Binary File
    Reading Binary File
    Reading Binary File
    Reading Binary File
    Reading Binary File
    Reading Binary File
    Reading Binary File
    Reading Binary File
    Reading Binary File
    Reading Binary File
    Reading Binary File
    Reading Binary File
    Reading Binary File
    Reading Binary File
    Reading Binary File
    Reading Binary File
    Reading Binary File
    Reading Binary File
    Reading Binary File
    Reading Binary File
    Reading Binary File
    Reading Binary File
    Reading Binary File
    Reading Binary File
    Reading Binary File
    Reading Binary File
    Reading Binary File
    Reading Binary File
    Reading Binary File
    Reading Binary File
    Reading Binary File
    Reading Binary File
    Reading Binary File
    Reading Binary File
    Reading Binary File
    Reading Binary File
    Reading Binary File
    Reading Binary File
    Reading Binary File
    Reading Binary File
    Reading Binary File
    Reading Binary File
    Reading Binary File
    Reading Binary File
    Reading Binary File
    Reading Binary File
    Reading Binary File
    Reading Binary File
    Reading Binary File
    Reading Binary File
    Reading Binary File
    Reading Binary File
    Reading Binary File
    Reading Binary File
    Reading Binary File
    Reading Binary File
    Reading Binary File
    Reading Binary File
    Reading Binary File
    Reading Binary File
    Reading Binary File
    Reading Binary File
    Reading Binary File
    Reading Binary File
    Reading Binary File
    Reading Binary File
    Reading Binary File
    Reading Binary File
    Reading Binary File
    Reading Binary File
    Reading Binary File
    Reading Binary File
    Reading Binary File
    Reading Binary File
    Reading Binary File
    Reading Binary File
    Reading Binary File
    Reading Binary File
    Reading Binary File
    Reading Binary File
    Reading Binary File
    Reading Binary File
    Reading Binary File
    Reading Binary File
    Reading Binary File
    Reading Binary File
    Reading Binary File
    Reading Binary File
    Reading Binary File
    Reading Binary File
    Reading Binary File
    Reading Binary File
    Reading Binary File
    Reading Binary File
    Reading Binary File
    Reading Binary File
    Reading Binary File
    Reading Binary File
    Reading Binary File
    Reading Binary File
    Reading Binary File
    Reading Binary File
    Reading Binary File
    Reading Binary File
    Reading Binary File
    Reading Binary File
    Reading Binary File
    Reading Binary File
    Reading Binary File
    Reading Binary File
    Reading Binary File
    Reading Binary File
    Reading Binary File
    Reading Binary File
    Reading Binary File
    Reading Binary File
    Reading Binary File
    Reading Binary File
    Reading Binary File
    Reading Binary File
    Reading Binary File
    Reading Binary File
    Reading Binary File
    Reading Binary File
    Reading Binary File
    Reading Binary File
    Reading Binary File
    Reading Binary File
    Reading Binary File
    Reading Binary File
    Reading Binary File
    Reading Binary File
    Reading Binary File
    Reading Binary File
    Reading Binary File
    Reading Binary File
    Reading Binary File
    Reading Binary File
    Reading Binary File
    Reading Binary File
    Reading Binary File
    Reading Binary File
    Reading Binary File
    Reading Binary File
    Reading Binary File
    Reading Binary File
    Reading Binary File
    Reading Binary File
    Reading Binary File
    Reading Binary File
    Reading Binary File
    Reading Binary File
    Reading Binary File
    Reading Binary File
    Reading Binary File
    Reading Binary File
    Reading Binary File
    Reading Binary File
    Reading Binary File
    Reading Binary File
    Reading Binary File
    Reading Binary File
    Reading Binary File
    Reading Binary File
    Reading Binary File
    Reading Binary File
    Reading Binary File
    Reading Binary File
    Reading Binary File
    Reading Binary File
    Reading Binary File
    Reading Binary File
    Reading Binary File
    Reading Binary File
    Reading Binary File
    Reading Binary File
    Reading Binary File
    Reading Binary File
    Reading Binary File
    Reading Binary File
    Reading Binary File
    Reading Binary File
    Reading Binary File
    Reading Binary File
    Reading Binary File
    Reading Binary File
    Reading Binary File
    Reading Binary File
    Reading Binary File
    Reading Binary File
    Reading Binary File
    Reading Binary File
    Reading Binary File
    Reading Binary File
    Reading Binary File
    Reading Binary File
    Reading Binary File
    Reading Binary File
    Reading Binary File
    Reading Binary File
    Reading Binary File
    Reading Binary File
    Reading Binary File
    Reading Binary File
    Reading Binary File
    Reading Binary File
    Reading Binary File
    Reading Binary File
    Reading Binary File
    Reading Binary File
    Reading Binary File
    Reading Binary File
    Reading Binary File
    Reading Binary File
    Reading Binary File
    Reading Binary File
    Reading Binary File
    Reading Binary File
    Reading Binary File
    Reading Binary File
    Reading Binary File
    Reading Binary File
    Reading Binary File
    Reading Binary File
    Reading Binary File
    Reading Binary File
    Reading Binary File
    Reading Binary File
    Reading Binary File
    Reading Binary File
    Reading Binary File
    Reading Binary File
    Reading Binary File
    Reading Binary File
    Reading Binary File
    Reading Binary File
    Reading Binary File
    Reading Binary File
    Reading Binary File
    Reading Binary File
    Reading Binary File
    Reading Binary File
    Reading Binary File
    Reading Binary File
    Reading Binary File
    Reading Binary File
    Reading Binary File
    Reading Binary File
    Reading Binary File
    Reading Binary File
    Reading Binary File
    Reading Binary File
    Reading Binary File
    Reading Binary File
    Reading Binary File
    Reading Binary File
    Reading Binary File
    Reading Binary File
    Reading Binary File
    Reading Binary File
    Reading Binary File
    Reading Binary File
    Reading Binary File
    Reading Binary File
    Reading Binary File
    Reading Binary File
    Reading Binary File
    Reading Binary File
    Reading Binary File
    Reading Binary File
    Reading Binary File
    Reading Binary File
    Reading Binary File
    Reading Binary File
    Reading Binary File
    Reading Binary File
    Reading Binary File
    Reading Binary File
    Reading Binary File
    Reading Binary File
    Reading Binary File
    Reading Binary File
    Reading Binary File
    Reading Binary File
    Reading Binary File
    Reading Binary File
    Reading Binary File
[...]
    Reading Binary File
    Reading Binary File
    Reading Binary File
    Reading Binary File
    Reading Binary File
    Reading Binary File
    Reading Binary File
    Reading Binary File
    Reading Binary File
    Reading Binary File
    Reading Binary File
    Reading Binary File
    Reading Binary File
    Reading Binary File
    Reading Binary File
    Reading Binary File
    Reading Binary File
    Reading Binary File
    Reading Binary File
    Reading Binary File
    Reading Binary File
    Reading Binary File
    Reading Binary File
    Reading Binary File
    Reading Binary File
    Reading Binary File
    Reading Binary File
    Reading Binary File
    Reading Binary File
    Reading Binary File
    Reading Binary File
    Reading Binary File
    Reading Binary File
    Reading Binary File
    Reading Binary File
    Reading Binary File
    Reading Binary File
    Reading Binary File
    Reading Binary File
    Reading Binary File
    Reading Binary File
    Reading Binary File
    Reading Binary File
    Reading Binary File
    Reading Binary File
    Reading Binary File
    Reading Binary File
    Reading Binary File
    Reading Binary File
    Reading Binary File
    Reading Binary File
    Reading Binary File
    Reading Binary File
    Reading Binary File
    Reading Binary File
    Reading Binary File
    Reading Binary File
    Reading Binary File
    Reading Binary File
    Reading Binary File
    Reading Binary File
    Reading Binary File
    Reading Binary File
    Reading Binary File
    Reading Binary File
    Reading Binary File
    Reading Binary File
    Reading Binary File
    Reading Binary File
    Reading Binary File
    Reading Binary File
    Reading Binary File
    Reading Binary File
    Reading Binary File
    Reading Binary File
    Reading Binary File
    Reading Binary File
    Reading Binary File
    Reading Binary File
    Reading Binary File
    Reading Binary File
    Reading Binary File
    Reading Binary File
    Reading Binary File
    Reading Binary File
    Reading Binary File
    Reading Binary File
    Reading Binary File
    Reading Binary File
    Reading Binary File
    Reading Binary File
    Reading Binary File
    Reading Binary File
    Reading Binary File
    Reading Binary File
    Reading Binary File
    Reading Binary File
    Reading Binary File
    Reading Binary File
    Reading Binary File
    Reading Binary File
    Reading Binary File
    Reading Binary File
    Reading Binary File
    Reading Binary File
    Reading Binary File
    Reading Binary File
    Reading Binary File
    Reading Binary File
    Reading Binary File
    Reading Binary File
    Reading Binary File
    Reading Binary File
    Reading Binary File
    Reading Binary File
    Reading Binary File
    Reading Binary File
    Reading Binary File
    Reading Binary File
    Reading Binary File
    Reading Binary File
    Reading Binary File
    Reading Binary File
    Reading Binary File
    Reading Binary File
    Reading Binary File
    Reading Binary File
    Reading Binary File
    Reading Binary File
    Reading Binary File
    Reading Binary File
    Reading Binary File
    Reading Binary File
    Reading Binary File
    Reading Binary File
    Reading Binary File
    Reading Binary File
    Reading Binary File
    Reading Binary File
    Reading Binary File
    Reading Binary File
    Reading Binary File
    Reading Binary File
    Reading Binary File
    Reading Binary File
    Reading Binary File
    Reading Binary File
    Reading Binary File
    Reading Binary File
    Reading Binary File
    Reading Binary File
    Reading Binary File
    Reading Binary File
    Reading Binary File
    Reading Binary File
    Reading Binary File
    Reading Binary File
    Reading Binary File
    Reading Binary File
    Reading Binary File
    Reading Binary File
    Reading Binary File
    Reading Binary File
    Reading Binary File
    Reading Binary File
    Reading Binary File
    Reading Binary File
    Reading Binary File
    Reading Binary File
    Reading Binary File
    Reading Binary File
    Reading Binary File
    Reading Binary File
    Reading Binary File
    Reading Binary File
    Reading Binary File
    Reading Binary File
    Reading Binary File
    Reading Binary File
    Reading Binary File
    Reading Binary File
    Reading Binary File
    Reading Binary File
    Reading Binary File
    Reading Binary File
    Reading Binary File
    Reading Binary File
    Reading Binary File
    Reading Binary File
    Reading Binary File
    Reading Binary File
    Reading Binary File
    Reading Binary File
    Reading Binary File
    Reading Binary File
    Reading Binary File
    Reading Binary File
    Reading Binary File
    Reading Binary File
    Reading Binary File
    Reading Binary File
    Reading Binary File
    Reading Binary File
    Reading Binary File
    Reading Binary File
    Reading Binary File
    Reading Binary File
    Reading Binary File
    Reading Binary File
    Reading Binary File
    Reading Binary File
    Reading Binary File
    Reading Binary File
    Reading Binary File
    Reading Binary File
    Reading Binary File
    Reading Binary File
    Reading Binary File
    Reading Binary File
    Reading Binary File
    Reading Binary File
    Reading Binary File
    Reading Binary File
    Reading Binary File
    Reading Binary File
    Reading Binary File
    Reading Binary File
    Reading Binary File
    Reading Binary File
    Reading Binary File
    Reading Binary File
    Reading Binary File
    Reading Binary File
    Reading Binary File
    Reading Binary File
    Reading Binary File
    Reading Binary File
    Reading Binary File
    Reading Binary File
    Reading Binary File
    Reading Binary File
    Reading Binary File
    Reading Binary File
    Reading Binary File
    Reading Binary File
    Reading Binary File
    Reading Binary File
    Reading Binary File
    Reading Binary File
    Reading Binary File
    Reading Binary File
    Reading Binary File
    Reading Binary File
    Reading Binary File
    Reading Binary File
    Reading Binary File
    Reading Binary File
    Reading Binary File
    Reading Binary File
    Reading Binary File
    Reading Binary File
    Reading Binary File
    Reading Binary File
    Reading Binary File
    Reading Binary File
    Reading Binary File
    Reading Binary File
    Reading Binary File
    Reading Binary File
    Reading Binary File
    Reading Binary File
    Reading Binary File
    Reading Binary File
    Reading Binary File
    Reading Binary File
    Reading Binary File
    Reading Binary File
    Reading Binary File
    Reading Binary File
    Reading Binary File
    Reading Binary File
    Reading Binary File
    Reading Binary File
    Reading Binary File
    Reading Binary File
    Reading Binary File
    Reading Binary File
    Reading Binary File
    Reading Binary File
    Reading Binary File
    Reading Binary File
    Reading Binary File
    Reading Binary File
    Reading Binary File
    Reading Binary File
    Reading Binary File
    Reading Binary File
    Reading Binary File
    Reading Binary File
    Reading Binary File
    Reading Binary File
    Reading Binary File
    Reading Binary File
    Reading Binary File
    Reading Binary File
    Reading Binary File
    Reading Binary File
    Reading Binary File
    Reading Binary File
    Reading Binary File
    Reading Binary File
    Reading Binary File
    Reading Binary File
    Reading Binary File
    Reading Binary File
    Reading Binary File
    Reading Binary File
    Reading Binary File
    Reading Binary File
    Reading Binary File
    Reading Binary File
    Reading Binary File
    Reading Binary File
    Reading Binary File
    Reading Binary File
    Reading Binary File
    Reading Binary File
    Reading Binary File
    Reading Binary File
    Reading Binary File
    Reading Binary File
    Reading Binary File
    Reading Binary File
    Reading Binary File
    Reading Binary File
    Reading Binary File
    Reading Binary File
    Reading Binary File
    Reading Binary File
    Reading Binary File
    Reading Binary File
    Reading Binary File
    Reading Binary File
    Reading Binary File
    Reading Binary File
    Reading Binary File
    Reading Binary File
    Reading Binary File
    Reading Binary File
    Reading Binary File
    Reading Binary File
    Reading Binary File
    Reading Binary File
    Reading Binary File
    Reading Binary File
    Reading Binary File
    Reading Binary File
    Reading Binary File
    Reading Binary File
    Reading Binary File
    Reading Binary File
    Reading Binary File
    Reading Binary File
    Reading Binary File
    Reading Binary File
    Reading Binary File
    Reading Binary File
    Reading Binary File
    Reading Binary File
    Reading Binary File
    Reading Binary File
    Reading Binary File
    Reading Binary File
    Reading Binary File
    Reading Binary File
    Reading Binary File
    Reading Binary File
    Reading Binary File
    Reading Binary File
    Reading Binary File
    Reading Binary File
    Reading Binary File
    Reading Binary File
    Reading Binary File
    Reading Binary File
    Reading Binary File
    Reading Binary File
    Reading Binary File
    Reading Binary File
    Reading Binary File
    Reading Binary File
    Reading Binary File
    Reading Binary File
    Reading Binary File
    Reading Binary File
    Reading Binary File
    Reading Binary File
    Reading Binary File
    Reading Binary File
    Reading Binary File
    Reading Binary File
    Reading Binary File
    Reading Binary File
    Reading Binary File
    Reading Binary File
    Reading Binary File
    Reading Binary File
    Reading Binary File
    Reading Binary File
    Reading Binary File
    Reading Binary File
    Reading Binary File
    Reading Binary File
    Reading Binary File
    Reading Binary File
    Reading Binary File
    Reading Binary File
    Reading Binary File
    Reading Binary File
    Reading Binary File
    Reading Binary File
    Reading Binary File
    Reading Binary File
    Reading Binary File
    Reading Binary File
    Reading Binary File
    Reading Binary File
    Reading Binary File
    Reading Binary File
    Reading Binary File
    Reading Binary File
    Reading Binary File
    Reading Binary File
    Reading Binary File
    Reading Binary File
    Reading Binary File
    Reading Binary File
    Reading Binary File
    Reading Binary File
    Reading Binary File
    Reading Binary File
    Reading Binary File
    Reading Binary File
    Reading Binary File
    Reading Binary File
    Reading Binary File
    Reading Binary File
    Reading Binary File
    Reading Binary File
    Reading Binary File
    Reading Binary File
    Reading Binary File
    Reading Binary File
    Reading Binary File
    Reading Binary File
    Reading Binary File
    Reading Binary File
    Reading Binary File
    Reading Binary File
    Reading Binary File
    Reading Binary File
    Reading Binary File
    Reading Binary File
    Reading Binary File
    Reading Binary File
    Reading Binary File
    Reading Binary File
    Reading Binary File
    Reading Binary File
    Reading Binary File
    Reading Binary File
    Reading Binary File
    Reading Binary File
    Reading Binary File
    Reading Binary File
    Reading Binary File
    Reading Binary File
    Reading Binary File
    Reading Binary File
    Reading Binary File
    Reading Binary File
    Reading Binary File
    Reading Binary File
    Reading Binary File
    Reading Binary File
    Reading Binary File
    Reading Binary File
    Reading Binary File
    Reading Binary File
    Reading Binary File
    Reading Binary File
    Reading Binary File
    Reading Binary File
    Reading Binary File
    Reading Binary File
    Reading Binary File
    Reading Binary File
    Reading Binary File
    Reading Binary File
    Reading Binary File
    Reading Binary File
    Reading Binary File
    Reading Binary File
    Reading Binary File
    Reading Binary File
    Reading Binary File
    Reading Binary File
    Reading Binary File
    Reading Binary File
    Reading Binary File
    Reading Binary File
    Reading Binary File
    Reading Binary File
    Reading Binary File
    Reading Binary File
    Reading Binary File
    Reading Binary File
    Reading Binary File
    Reading Binary File
    Reading Binary File
    Reading Binary File
    Reading Binary File
    Reading Binary File
    Reading Binary File
    Reading Binary File
    Reading Binary File
    Reading Binary File
    Reading Binary File
    Reading Binary File
    Reading Binary File
    Reading Binary File
    Reading Binary File
    Reading Binary File
    Reading Binary File
    Reading Binary File
    Reading Binary File
    Reading Binary File
    Reading Binary File
    Reading Binary File
    Reading Binary File
    Reading Binary File
    Reading Binary File
    Reading Binary File
    Reading Binary File
    Reading Binary File
    Reading Binary File
    Reading Binary File
    Reading Binary File
    Reading Binary File
    Reading Binary File
    Reading Binary File
    Reading Binary File
    Reading Binary File
    Reading Binary File
    Reading Binary File
    Reading Binary File
    Reading Binary File
    Reading Binary File
    Reading Binary File
    Reading Binary File
    Reading Binary File
    Reading Binary File
    Reading Binary File
    Reading Binary File
    Reading Binary File
    Reading Binary File
    Reading Binary File
    Reading Binary File
    Reading Binary File
    Reading Binary File
    Reading Binary File
    Reading Binary File
 Time step and stress period found in file
*** Reading Concentrations for Layer 2 ***
    Reading Binary File
 Time step and stress period found in file
*** Reading Concentrations for Layer 3 ***
    Reading Binary File
 Time step and stress period found in file
*** Reading Concentrations for Layer 4 ***
    Reading Binary File
 Time step and stress period found in file
*** Reading Concentrations for Layer 5 ***
    Reading Binary File
 Time step and stress period found in file
*** Reading Concentrations for Layer 6 ***
    Reading Binary File
 Time step and stress period found in file
*** Reading Concentrations for Layer 7 ***
    Reading Binary File
 Time step and stress period found in file
*** Reading Concentrations for Layer 8 ***
    Reading Binary File
 Time step and stress period found in file
*** Reading Concentrations for Layer 9 ***
    Reading Binary File
 Time step and stress period found in file
*** Reading Concentrations for Layer 10 ***
    Reading Binary File
 Time step and stress period found in file
*** Reading Concentrations for Layer 11 ***
    Reading Binary File
 Time step and stress period found in file
*** Reading Concentrations for Layer 12 ***
    Reading Binary File
 Time step and stress period found in file
*** Reading Concentrations for Layer 13 ***
    Reading Binary File
 Time step and stress period found in file
*** Reading Concentrations for Layer 14 ***
    Reading Binary File
 Time step and stress period found in file
*** Reading Concentrations for Layer 15 ***
    Reading Binary File
 Time step and stress period found in file
*** Reading Concentrations for Layer 16 ***
    Reading Binary File
 Time step and stress period found in file
*** Reading Concentrations for Layer 17 ***
    Reading Binary File
 Time step and stress period found in file
*** Reading Concentrations for Layer 18 ***
    Reading Binary File
 Time step and stress period found in file
*** Reading Concentrations for Layer 19 ***
    Reading Binary File
 Time step and stress period found in file
*** Reading Concentrations for Layer 20 ***
    Reading Binary File
 Time step and stress period found in file
*** Reading Concentrations for Layer 21 ***
    Reading Binary File
 Time step and stress period found in file
*** Reading Concentrations for Layer 22 ***
    Reading Binary File
 Time step and stress period found in file
*** Reading Concentrations for Layer 23 ***
    Reading Binary File
 Time step and stress period found in file     0 ERRORS,   0 WARNINGS

 >>>>> Translating BASIC Package <<<<<


 >>>>> Testing Layer Elevations <<<<<

 *** Opening HEADSAVE File to set initial conditions ***

*** Reading Heads for Layer 1 ***
    Reading Binary File
 Time step and stress period found in file
*** Reading Heads for Layer 2 ***
    Reading Binary File
 Time step and stress period found in file
*** Reading Heads for Layer 3 ***
    Reading Binary File
 Time step and stress period found in file
*** Reading Heads for Layer 4 ***
    Reading Binary File
 Time step and stress period found in file
*** Reading Heads for Layer 5 ***
    Reading Binary File
 Time step and stress period found in file
*** Reading Heads for Layer 6 ***
    Reading Binary File
 Time step and stress period found in file
*** Reading Heads for Layer 7 ***
    Reading Binary File
 Time step and stress period found in file
*** Reading Heads for Layer 8 ***
    Reading Binary File
 Time step and stress period found in file
*** Reading Heads for Layer 9 ***
    Reading Binary File
 Time step and stress period found in file
*** Reading Heads for Layer 10 ***
    Reading Binary File
 Time step and stress period found in file
*** Reading Heads for Layer 11 ***
    Reading Binary File
 Time step and stress period found in file
*** Reading Heads for Layer 12 ***
    Reading Binary File
 Time step and stress period found in file
*** Reading Heads for Layer 13 ***
    Reading Binary File
 Time step and stress period found in file
*** Reading Heads for Layer 14 ***
    Reading Binary File
 Time step and stress period found in file
*** Reading Heads for Layer 15 ***
    Reading Binary File
 Time step and stress period found in file
*** Reading Heads for Layer 16 ***
    Reading Binary File
 Time step and stress period found in file
*** Reading Heads for Layer 17 ***
    Reading Binary File
 Time step and stress period found in file
*** Reading Heads for Layer 18 ***
    Reading Binary File
 Time step and stress period found in file
*** Reading Heads for Layer 19 ***
    Reading Binary File
 Time step and stress period found in file
*** Reading Heads for Layer 20 ***
    Reading Binary File
 Time step and stress period found in file
*** Reading Heads for Layer 21 ***
    Reading Binary File
 Time step and stress period found in file
*** Reading Heads for Layer 22 ***
    Reading Binary File
 Time step and stress period found in file
*** Reading Heads for Layer 23 ***
    Reading Binary File
 Time step and stress period found in file
 *** Opening MT3D Concentration File to set initial concentrations ***
*** Error *** Unable to open concentration File!
 *** File Name: C:\users\adausman\Hyderabad\course\India\exercises\SWI_IE\SWI_IE_ori2.ucn     1 ERRORS,   0 WARNINGS     0 ERRORS,   0 WARNINGS

 >>>>> Translating ADVECTION Package <<<<<


 >>>>> Translating DISPERSION Package <<<<<


 >>>>> Translating SOURCE/SINK Package <<<<<


 >>>>> Translating REACTIONS Package <<<<<


 >>>>> Translating MT3DMS GCG Solver Package <<<<<


 ========== TRANSLATION COMPLETE! ==========