
 ========== TRANSLATION TO USGS-MODPATH ==========



 >>>>> Testing Layer Elevations <<<<<
     0 ERRORS,   0 WARNINGS Warning -- 25 out of 25 particles have ZOffset = 1.0
     When using reverse tracking, these particles may not move because upgradient is into the unsaturated zone
     To modify the ZOffset, you must edit each particle, line-cluster, or circle-cluster



 >>>>> Translating MAIN DATA FILE <<<<<


 >>>>> Translating WELL 1 Package <<<<<


 >>>>> Translating RECHARGE Package <<<<<


 ========== TRANSLATION COMPLETE! ==========